data_cubic_1_ND
 
_pd_block_id    KNN-Li2Mn_776K_300mm_varH
#==============================================================================             
# 9. INSTRUMENT CHARACTERIZATION                                                            
                                                                                            
_exptl_special_details                                                                      
; ?                                                                                         
;                                                                                           
                                                                                            
# if regions of the data are excluded, the reason(s) are supplied here:                     
_pd_proc_info_excluded_regions                                                              
; ?                                                                                         
;                                                                                           
                                                                                            
# The following item is used to identify the equipment used to record                       
# the powder pattern when the diffractogram was measured at a laboratory                    
# other than the authors' home institution, e.g. when neutron or synchrotron                
# radiation is used.                                                                        
                                                                                            
_pd_instr_location                                                                          
; ?                                                                                         
;                                                                                           
_pd_calibration_special_details           # description of the method used                  
                                          # to calibrate the instrument                     
; ?                                                                                         
;                                                                                           
                                                                                            
_diffrn_ambient_temperature    ?                                                            
_diffrn_source                 ?                                                            
_diffrn_source_target          ?                                                            
_diffrn_source_type            ?                                                            
_diffrn_measurement_device_type ?                                                            
_diffrn_detector               ?                                                            
_diffrn_detector_type          ?  # make or model of detector                               
                                                                                            
_pd_meas_scan_method           ?  # options are 'step', 'cont',                             
                                  # 'tof', 'fixed' or                                       
                                  # 'disp' (= dispersive)                                   
_pd_meas_special_details                                                                    
;  ?                                                                                        
;                                                                                           
                                                                                            
# The following two items identify the program(s) used (if appropriate).                    
_computing_data_collection        ?                                                         
_computing_data_reduction         ?                                                         
                                                                                            
# Describe any processing performed on the data, prior to refinement.                       
# For example: a manual Lp correction or a precomputed absorption correction                
_pd_proc_info_data_reduction      ?                                                         
                                                                                            
# The following item is used for angular dispersive measurements only.                      
                                                                                            
_diffrn_radiation_monochromator   ?                                                         
                                                                                            
# The following items are used to define the size of the instrument.                        
# Not all distances are appropriate for all instrument types.                               
                                                                                            
_pd_instr_dist_src/mono           ?                                                         
_pd_instr_dist_mono/spec          ?                                                         
_pd_instr_dist_src/spec           ?                                                         
_pd_instr_dist_spec/anal          ?                                                         
_pd_instr_dist_anal/detc          ?                                                         
_pd_instr_dist_spec/detc          ?                                                         
                                                                                            
# 10. Specimen size and mounting information                                                
                                                                                            
# The next three fields give the specimen dimensions in mm.  The equatorial                 
# plane contains the incident and diffracted beam.                                          
                                                                                            
_pd_spec_size_axial               ?       # perpendicular to                                
                                          # equatorial plane                                
                                                                                            
_pd_spec_size_equat               ?       # parallel to                                     
                                          # scattering vector                               
                                          # in transmission                                 
                                                                                            
_pd_spec_size_thick               ?       # parallel to                                     
                                          # scattering vector                               
                                          # in reflection                                   
                                                                                            
_pd_spec_mounting                         # This field should be                            
                                          # used to give details of the                     
                                          # container.                                      
; ?                                                                                         
;                                                                                           
                                                                                            
_pd_spec_mount_mode               ?       # options are 'reflection'                        
                                          # or 'transmission'                               
                                                                                            
_pd_spec_shape                    ?       # options are 'cylinder'                          
                                          # 'flat_sheet' or 'irregular'                     
                                                                                            
     
_diffrn_radiation_probe                neutrons 
_diffrn_radiation_wavelength            1.5482
     
#  The following profile R-factors are NOT CORRECTED for background
#  The sum is extended to all non-excluded points.
#  These are the current CIF standard
 
_pd_proc_ls_prof_R_factor               20.8961
_pd_proc_ls_prof_wR_factor              32.0189
_pd_proc_ls_prof_wR_expected             1.6260
 
#  The following profile R-factors are CORRECTED for background
#  The sum is extended to all non-excluded points.
#  These items are not in the current CIF standard, but are defined above
 
_pd_proc_ls_prof_cR_factor               49.7310
_pd_proc_ls_prof_cwR_factor              53.3438
_pd_proc_ls_prof_cwR_expected             2.7089
 
#  The following items are not in the CIF standard, but are defined above
 
_pd_proc_ls_prof_chi2               387.7832
_pd_proc_ls_prof_echi2              395.2757
  
_pd_proc_ls_background_function   
;   FullProf Background function number  
;                                                                              
                                                                               
_exptl_absorpt_process_details                                                 
;   FullProf Absorption/surface roughness correction    
 No correction is applied ?.                                                   
;                                                                              
                                                                               
_pd_proc_ls_profile_function                                                   
;                                                                              
;                                                                              
_pd_proc_ls_peak_cutoff 0.00500                                                
_pd_calc_method  "   Rietveld Refinement" 
                                                                               
#---- raw/calc data loop -----   
_pd_meas_2theta_range_min       1.250000
_pd_meas_2theta_range_max     151.899994
_pd_meas_2theta_range_inc       0.050019
_pd_proc_2theta_range_min       1.241330
_pd_proc_2theta_range_max     151.891327
_pd_proc_2theta_range_inc       0.050019
 
loop_
_pd_proc_point_id
_pd_proc_2theta_corrected   
_pd_proc_intensity_total
_pd_calc_intensity_total
_pd_proc_intensity_bkg_calc
 
   177    10.0413    2037(166)          1886.0148         1886.0148                                                                 
   178    10.0913    2212(172)          1886.0148         1886.0148                                                                 
   179    10.1413    2155(169)          1886.0148         1886.0148                                                                 
   180    10.1913    2130(168)          1886.0148         1886.0148                                                                 
   181    10.2413    1958(160)          1886.0148         1886.0148                                                                 
   182    10.2913    2144(167)          1886.0148         1886.0148                                                                 
   183    10.3413    2165(168)          1886.0148         1886.0148                                                                 
   184    10.3913    2087(164)          1886.0148         1886.0148                                                                 
   185    10.4413    2064(163)          1886.0148         1886.0148                                                                 
   186    10.4913    2055(162)          1886.0148         1886.0148                                                                 
   187    10.5413    2043(161)          1886.0148         1886.0148                                                                 
   188    10.5913    2212(167)          1886.0148         1886.0148                                                                 
   189    10.6413    2144(164)          1886.0148         1886.0148                                                                 
   190    10.6913    2123(162)          1886.0148         1886.0148                                                                 
   191    10.7413    2116(162)          1886.0148         1886.0148                                                                 
   192    10.7913    1971(155)          1886.0148         1886.0148                                                                 
   193    10.8413    1984(156)          1886.0148         1886.0148                                                                 
   194    10.8913    2076(159)          1886.0148         1886.0148                                                                 
   195    10.9413    2014(156)          1886.0148         1886.0148                                                                 
   196    10.9913    1983(154)          1886.0148         1886.0148                                                                 
   197    11.0413    1987(154)          1886.0148         1886.0148                                                                 
   198    11.0913    1971(153)          1886.0148         1886.0148                                                                 
   199    11.1413    1891(149)          1886.0148         1886.0148                                                                 
   200    11.1913    2000(153)          1886.0148         1886.0148                                                                 
   201    11.2413    2007(153)          1886.0148         1886.0148                                                                 
   202    11.2913    2089(155)          1886.0148         1886.0148                                                                 
   203    11.3413    2056(154)          1886.0148         1886.0148                                                                 
   204    11.3913    2013(152)          1886.0148         1886.0148                                                                 
   205    11.4413    1993(150)          1886.0148         1886.0148                                                                 
   206    11.4913    1944(148)          1886.0148         1886.0148                                                                 
   207    11.5413    1918(147)          1886.0148         1886.0148                                                                 
   208    11.5913    1977(148)          1886.0148         1886.0148                                                                 
   209    11.6413    1965(148)          1886.0148         1886.0148                                                                 
   210    11.6913    1966(147)          1886.0148         1886.0148                                                                 
   211    11.7413    2040(149)          1886.5962         1886.5962                                                                 
   212    11.7913    2022(148)          1885.8508         1885.8508                                                                 
   213    11.8413    1935(145)          1885.1053         1885.1053                                                                 
   214    11.8913    1970(146)          1884.3600         1884.3600                                                                 
   215    11.9413    1821(139)          1883.6145         1883.6145                                                                 
   216    11.9913    1726(135)          1882.8691         1882.8691                                                                 
   217    12.0413    1824(139)          1882.1237         1882.1237                                                                 
   218    12.0913    1913(142)          1881.3783         1881.3783                                                                 
   219    12.1413    1883(140)          1880.6329         1880.6329                                                                 
   220    12.1913    1851(139)          1879.8875         1879.8875                                                                 
   221    12.2413    1975(143)          1879.1421         1879.1421                                                                 
   222    12.2913    1996(143)          1878.3966         1878.3966                                                                 
   223    12.3413    2040(144)          1877.6512         1877.6512                                                                 
   224    12.3913    1854(137)          1876.9058         1876.9058                                                                 
   225    12.4413    2047(144)          1876.1604         1876.1604                                                                 
   226    12.4913    1967(141)          1875.4150         1875.4150                                                                 
   227    12.5413    2119(145)          1874.6696         1874.6696                                                                 
   228    12.5913    1935(139)          1873.9242         1873.9242                                                                 
   229    12.6413    1927(138)          1873.1787         1873.1787                                                                 
   230    12.6913    1960(139)          1872.5795         1872.4333                                                                 
   231    12.7413    2003(140)          1871.8354         1871.6879                                                                 
   232    12.7913    2113(143)          1871.0917         1870.9425                                                                 
   233    12.8413    2016(139)          1870.3479         1870.1971                                                                 
   234    12.8913    2010(139)          1869.6040         1869.4517                                                                 
   235    12.9413    2065(140)          1868.8602         1868.7063                                                                 
   236    12.9913    2112(142)          1868.1163         1867.9608                                                                 
   237    13.0413    1942(135)          1867.3727         1867.2155                                                                 
   238    13.0913    1941(135)          1866.6289         1866.4700                                                                 
   239    13.1413    1881(133)          1865.8853         1865.7246                                                                 
   240    13.1913    1973(135)          1865.1416         1864.9792                                                                 
   241    13.2413    1921(133)          1864.3979         1864.2338                                                                 
   242    13.2913    1918(133)          1863.6544         1863.4884                                                                 
   243    13.3413    1939(133)          1862.9108         1862.7429                                                                 
   244    13.3913    1775(127)          1862.1672         1861.9976                                                                 
   245    13.4413    1881(130)          1861.4237         1861.2521                                                                 
   246    13.4913    1949(132)          1860.6803         1860.5067                                                                 
   247    13.5413    1923(131)          1859.9369         1859.7614                                                                 
   248    13.5913    1833(128)          1859.1934         1859.0159                                                                 
   249    13.6413    1961(132)          1858.4501         1858.2705                                                                 
   250    13.6913    1774(125)          1857.7067         1857.5250                                                                 
   251    13.7413    1759(124)          1856.9634         1856.7797                                                                 
   252    13.7913    1993(132)          1856.2201         1856.0342                                                                 
   253    13.8413    1960(130)          1855.4769         1855.2888                                                                 
   254    13.8913    1983(131)          1854.7338         1854.5435                                                                 
   255    13.9413    1972(130)          1853.9906         1853.7980                                                                 
   256    13.9913    1806(124)          1853.2474         1853.0526                                                                 
   257    14.0413    1767(122)          1852.5044         1852.3071                                                                 
   258    14.0913    1772(122)          1851.7614         1851.5618                                                                 
   259    14.1413    1790(123)          1851.0184         1850.8164                                                                 
   260    14.1913    1715(120)          1850.2754         1850.0709                                                                 
   261    14.2413    1832(123)          1849.5326         1849.3256                                                                 
   262    14.2913    1919(126)          1848.7897         1848.5801                                                                 
   263    14.3413    1938(126)          1848.0470         1847.8347                                                                 
   264    14.3913    1939(126)          1847.3041         1847.0892                                                                 
   265    14.4413    2017(128)          1846.5615         1846.3439                                                                 
   266    14.4913    1838(122)          1845.8187         1845.5984                                                                 
   267    14.5413    1876(123)          1845.0762         1844.8530                                                                 
   268    14.5913    1899(123)          1844.3337         1844.1077                                                                 
   269    14.6413    1796(120)          1843.5912         1843.3622                                                                 
   270    14.6913    1810(120)          1842.8489         1842.6168                                                                 
   271    14.7413    1783(119)          1842.1063         1841.8713                                                                 
   272    14.7913    1820(119)          1841.3641         1841.1260                                                                 
   273    14.8413    1806(119)          1840.6218         1840.3805                                                                 
   274    14.8913    1861(120)          1839.8796         1839.6351                                                                 
   275    14.9413    1872(120)          1839.1376         1838.8898                                                                 
   276    14.9913    1960(123)          1838.3955         1838.1443                                                                 
   277    15.0413    1856(119)          1837.6536         1837.3989                                                                 
   278    15.0913    1800(117)          1836.9116         1836.6534                                                                 
   279    15.1413    1718(114)          1836.1698         1835.9081                                                                 
   280    15.1913    1791(116)          1835.4281         1835.1627                                                                 
   281    15.2413    1693(113)          1834.6864         1834.4172                                                                 
   282    15.2913    1813(116)          1833.9448         1833.6719                                                                 
   283    15.3413    1834(117)          1833.2032         1832.9264                                                                 
   284    15.3913    1978(121)          1832.4618         1832.1810                                                                 
   285    15.4413    1929(119)          1831.7205         1831.4355                                                                 
   286    15.4913    1868(117)          1830.9792         1830.6902                                                                 
   287    15.5413    1819(115)          1830.2382         1829.9448                                                                 
   288    15.5913    1881(117)          1829.4969         1829.1993                                                                 
   289    15.6413    1745(112)          1828.7560         1828.4540                                                                 
   290    15.6913    1718(111)          1828.0151         1827.7085                                                                 
   291    15.7413    1799(113)          1827.2744         1826.9631                                                                 
   292    15.7913    1713(110)          1826.5336         1826.2177                                                                 
   293    15.8413    1616(107)          1825.7931         1825.4723                                                                 
   294    15.8913    1494(102)          1825.0527         1824.7269                                                                 
   295    15.9413    1495(102)          1824.3123         1823.9814                                                                 
   296    15.9913    1325(96)          1823.5721         1823.2361                                                                  
   297    16.0413    1487(101)          1822.8320         1822.4906                                                                 
   298    16.0913    1615(105)          1822.0920         1821.7452                                                                 
   299    16.1413    1602(105)          1821.3522         1820.9998                                                                 
   300    16.1913    1694(107)          1820.6125         1820.2544                                                                 
   301    16.2413    1725(108)          1819.8730         1819.5090                                                                 
   302    16.2913    1763(109)          1819.1335         1818.7635                                                                 
   303    16.3413    1768(109)          1818.3944         1818.0182                                                                 
   304    16.3913    1908(113)          1817.6552         1817.2727                                                                 
   305    16.4413    1779(109)          1816.9163         1816.5273                                                                 
   306    16.4913    1818(110)          1816.1775         1815.7819                                                                 
   307    16.5413    1783(108)          1815.4388         1815.0365                                                                 
   308    16.5913    1879(111)          1814.7006         1814.2911                                                                 
   309    16.6413    1816(109)          1813.9622         1813.5457                                                                 
   310    16.6913    1641(103)          1813.2242         1812.8003                                                                 
   311    16.7413    1820(109)          1812.4863         1812.0548                                                                 
   312    16.7913    1786(107)          1811.7487         1811.3094                                                                 
   313    16.8413    1710(105)          1811.0111         1810.5640                                                                 
   314    16.8913    1717(105)          1810.2739         1809.8186                                                                 
   315    16.9413    1845(108)          1809.5370         1809.0732                                                                 
   316    16.9913    1828(108)          1808.8002         1808.3278                                                                 
   317    17.0413    1620(101)          1808.0637         1807.5824                                                                 
   318    17.0913    1712(104)          1807.3274         1806.8369                                                                 
   319    17.1413    1779(105)          1806.5914         1806.0916                                                                 
   320    17.1913    1728(104)          1805.8556         1805.3461                                                                 
   321    17.2413    1649(101)          1805.1202         1804.6007                                                                 
   322    17.2913    1736(103)          1804.3851         1803.8553                                                                 
   323    17.3413    1692(102)          1803.6503         1803.1099                                                                 
   324    17.3913    1662(101)          1802.9158         1802.3645                                                                 
   325    17.4413    1773(104)          1802.1815         1801.6190                                                                 
   326    17.4913    1817(105)          1801.4478         1800.8737                                                                 
   327    17.5413    1709(101)          1800.7142         1800.1283                                                                 
   328    17.5913    1651(99)          1799.9811         1799.3828                                                                  
   329    17.6413    1726(101)          1799.2484         1798.6375                                                                 
   330    17.6913    1686(100)          1798.5161         1797.8920                                                                 
   331    17.7413    1795(103)          1797.7842         1797.1466                                                                 
   332    17.7913    1657(99)          1797.0527         1796.4011                                                                  
   333    17.8413    1442(92)          1796.3218         1795.6558                                                                  
   334    17.8913    1555(95)          1795.5913         1794.9104                                                                  
   335    17.9413    1473(92)          1794.8613         1794.1649                                                                  
   336    17.9913    1421(90)          1794.1320         1793.4196                                                                  
   337    18.0413    1467(92)          1793.4030         1792.6741                                                                  
   338    18.0913    1600(96)          1792.6747         1791.9287                                                                  
   339    18.1413    1538(94)          1791.9469         1791.1832                                                                  
   340    18.1913    1721(99)          1791.2198         1790.4379                                                                  
   341    18.2413    1733(99)          1790.4934         1789.6924                                                                  
   342    18.2913    1808(101)          1789.7677         1788.9470                                                                 
   343    18.3413    1672(97)          1789.0428         1788.2017                                                                  
   344    18.3913    1729(98)          1788.3186         1787.4562                                                                  
   345    18.4413    1814(100)          1787.5952         1786.7108                                                                 
   346    18.4913    1815(100)          1786.8727         1785.9653                                                                 
   347    18.5413    1752(98)          1786.1511         1785.2200                                                                  
   348    18.5913    1805(99)          1785.4304         1784.4746                                                                  
   349    18.6413    1757(98)          1784.7107         1783.7291                                                                  
   350    18.6913    1773(98)          1783.9922         1782.9838                                                                  
   351    18.7413    1707(96)          1783.2745         1782.2383                                                                  
   352    18.7913    1843(99)          1782.5582         1781.4929                                                                  
   353    18.8413    1798(98)          1781.8431         1780.7474                                                                  
   354    18.8913    1870(100)          1781.1294         1780.0021                                                                 
   355    18.9413    1732(96)          1780.4169         1779.2566                                                                  
   356    18.9913    1741(96)          1779.7061         1778.5112                                                                  
   357    19.0413    1791(97)          1778.9967         1777.7659                                                                  
   358    19.0913    1813(97)          1778.2889         1777.0204                                                                  
   359    19.1413    1784(96)          1777.5830         1776.2750                                                                  
   360    19.1913    1860(98)          1776.8789         1775.5295                                                                  
   361    19.2413    1784(96)          1776.1768         1774.7842                                                                  
   362    19.2913    1753(95)          1775.4769         1774.0388                                                                  
   363    19.3413    1811(96)          1774.7791         1773.2933                                                                  
   364    19.3913    1748(94)          1774.0839         1772.5480                                                                  
   365    19.4413    1750(94)          1773.3910         1771.8025                                                                  
   366    19.4913    1772(95)          1772.7010         1771.0571                                                                  
   367    19.5413    1716(93)          1772.0140         1770.3118                                                                  
   368    19.5913    1833(96)          1771.3301         1769.5663                                                                  
   369    19.6413    1869(97)          1770.6497         1768.8209                                                                  
   370    19.6913    1851(96)          1769.9728         1768.0754                                                                  
   371    19.7413    1801(94)          1769.2999         1767.3301                                                                  
   372    19.7913    1678(91)          1768.6312         1766.5846                                                                  
   373    19.8413    1645(90)          1767.9672         1765.8392                                                                  
   374    19.8913    1641(89)          1767.3079         1765.0938                                                                  
   375    19.9413    1538(86)          1766.6541         1764.3484                                                                  
   376    19.9913    1600(88)          1766.0061         1763.6030                                                                  
   377    20.0413    1532(86)          1765.3643         1762.8575                                                                  
   378    20.0913    1592(87)          1764.7294         1762.1122                                                                  
   379    20.1413    1667(89)          1764.1019         1761.3667                                                                  
   380    20.1913    1662(89)          1763.4827         1760.6213                                                                  
   381    20.2413    1737(91)          1762.8722         1759.8759                                                                  
   382    20.2913    1778(92)          1762.2716         1759.1305                                                                  
   383    20.3413    1776(91)          1761.6818         1758.3851                                                                  
   384    20.3913    1788(91)          1761.1035         1757.6396                                                                  
   385    20.4413    1800(92)          1760.5386         1756.8943                                                                  
   386    20.4913    1830(92)          1759.9879         1756.1488                                                                  
   387    20.5413    1808(91)          1759.4532         1755.4034                                                                  
   388    20.5913    1667(88)          1758.9364         1754.6580                                                                  
   389    20.6413    1756(90)          1758.4395         1753.9126                                                                  
   390    20.6913    1907(93)          1757.9647         1753.1672                                                                  
   391    20.7413    1865(92)          1757.5149         1752.4218                                                                  
   392    20.7913    1897(93)          1757.0931         1751.6764                                                                  
   393    20.8413    1882(92)          1756.7031         1750.9309                                                                  
   394    20.8913    1760(89)          1756.3491         1750.1855                                                                  
   395    20.9413    1979(94)          1756.0361         1749.4401                                                                  
   396    20.9913    1886(92)          1755.7701         1748.6947                                                                  
   397    21.0413    1875(91)          1755.5581         1747.9493                                                                  
   398    21.0913    1787(89)          1755.4083         1747.2039                                                                  
   399    21.1413    1917(92)          1755.3309         1746.4585                                                                  
   400    21.1913    1839(90)          1755.3380         1745.7130                                                                  
   401    21.2413    1920(91)          1755.4443         1744.9677                                                                  
   402    21.2913    1844(89)          1755.6681         1744.2223                                                                  
   403    21.3413    1906(91)          1756.0315         1743.4768                                                                  
   404    21.3913    1887(90)          1756.5627         1742.7314                                                                  
   405    21.4413    1834(89)          1757.2968         1741.9860                                                                  
   406    21.4913    1954(91)          1758.2787         1741.2406                                                                  
   407    21.5413    1897(90)          1759.5663         1740.4951                                                                  
   408    21.5913    1876(89)          1761.2367         1739.7498                                                                  
   409    21.6413    1851(88)          1763.3995         1739.0044                                                                  
   410    21.6913    1835(88)          1766.2509         1738.2589                                                                  
   411    21.7413    1789(87)          1770.2988         1737.5135                                                                  
   412    21.7913    1772(86)          1777.2721         1736.7681                                                                  
   413    21.8413    1795(86)          1793.2670         1736.0227                                                                  
   414    21.8913    1803(86)          1837.8481         1735.2772                                                                  
   415    21.9413    1845(87)          1965.3535         1734.5319                                                                  
   416    21.9913    2456(100)          2302.8674         1733.7864                                                                 
   417    22.0413    4020(128)          3094.2839         1733.0410                                                                 
   418    22.0913    6997(169)          4706.4473         1732.2957                                                                 
   419    22.1413    12445(225)          7523.5664         1731.5502                                                                
   420    22.1913    21588(296)         11689.7275         1730.8048                                                                
   421    22.2413    33136(367)         16789.9141         1730.0593                                                                
   422    22.2913    45652(429)         21722.3906         1729.3140                                                                
   423    22.3413    54005(466)         24996.0645         1728.5686                                                                
   424    22.3913    55813(473)         25428.0332         1727.8231                                                                
   425    22.4413    51927(455)         22850.8477         1727.0778                                                                
   426    22.4913    41876(408)         18223.3223         1726.3323                                                                
   427    22.5413    30051(345)         13031.8320         1725.5869                                                                
   428    22.5913    18986(274)          8535.5830         1724.8414                                                                
   429    22.6413    10897(207)          5341.2964         1724.0961                                                                
   430    22.6913    5917(152)          3429.6150         1723.3506                                                                 
   431    22.7413    3368(114)          2451.1006         1722.6052                                                                 
   432    22.7913    2229(93)          2017.0879         1721.8599                                                                  
   433    22.8413    1956(87)          1847.1317         1721.1144                                                                  
   434    22.8913    1849(84)          1785.8901         1720.3690                                                                  
   435    22.9413    1852(84)          1763.4324         1719.6235                                                                  
   436    22.9913    1821(83)          1753.4220         1718.8782                                                                  
   437    23.0413    1817(83)          1747.3475         1718.1328                                                                  
   438    23.0913    1998(87)          1742.7521         1717.3873                                                                  
   439    23.1413    1937(85)          1738.9355         1716.6420                                                                  
   440    23.1913    1771(81)          1735.6522         1715.8965                                                                  
   441    23.2413    1911(84)          1732.7778         1715.1511                                                                  
   442    23.2913    1779(81)          1730.2280         1714.4058                                                                  
   443    23.3413    1859(83)          1727.9404         1713.6603                                                                  
   444    23.3913    1842(82)          1725.8673         1712.9149                                                                  
   445    23.4413    1961(85)          1723.9705         1712.1694                                                                  
   446    23.4913    1894(83)          1722.2207         1711.4241                                                                  
   447    23.5413    1781(80)          1720.5940         1710.6786                                                                  
   448    23.5913    1782(80)          1719.0712         1709.9332                                                                  
   449    23.6413    1803(81)          1717.6365         1709.1877                                                                  
   450    23.6913    1867(82)          1716.2775         1708.4424                                                                  
   451    23.7413    1880(82)          1714.9833         1707.6970                                                                  
   452    23.7913    1754(79)          1713.7452         1706.9515                                                                  
   453    23.8413    1685(77)          1712.5559         1706.2062                                                                  
   454    23.8913    1655(76)          1711.4092         1705.4607                                                                  
   455    23.9413    1634(76)          1710.2998         1704.7153                                                                  
   456    23.9913    1570(74)          1709.2234         1703.9700                                                                  
   457    24.0413    1500(72)          1708.1759         1703.2245                                                                  
   458    24.0913    1597(74)          1707.1541         1702.4790                                                                  
   459    24.1413    1601(74)          1706.1554         1701.7336                                                                  
   460    24.1913    1566(73)          1705.1772         1700.9883                                                                  
   461    24.2413    1628(75)          1704.2173         1700.2428                                                                  
   462    24.2913    1782(78)          1703.2739         1699.4974                                                                  
   463    24.3413    1888(80)          1702.3453         1698.7520                                                                  
   464    24.3913    1863(80)          1701.4303         1698.0066                                                                  
   465    24.4413    1831(79)          1700.5273         1697.2612                                                                  
   466    24.4913    1730(76)          1699.6354         1696.5157                                                                  
   467    24.5413    1732(76)          1698.7535         1695.7704                                                                  
   468    24.5913    1794(78)          1697.8809         1695.0249                                                                  
   469    24.6413    1819(78)          1697.0165         1694.2795                                                                  
   470    24.6913    1733(76)          1696.1598         1693.5341                                                                  
   471    24.7413    1807(77)          1695.3102         1692.7887                                                                  
   472    24.7913    1858(78)          1694.4670         1692.0433                                                                  
   473    24.8413    1826(77)          1693.6298         1691.2979                                                                  
   474    24.8913    1794(77)          1692.7981         1690.5525                                                                  
   475    24.9413    1842(77)          1691.9713         1689.8070                                                                  
   476    24.9913    1773(76)          1691.1494         1689.0616                                                                  
   477    25.0413    1869(78)          1690.3319         1688.3163                                                                  
   478    25.0913    1862(77)          1689.5182         1687.5708                                                                  
   479    25.1413    1771(75)          1688.7085         1686.8254                                                                  
   480    25.1913    1814(76)          1687.9021         1686.0800                                                                  
   481    25.2413    1754(75)          1687.0990         1685.3346                                                                  
   482    25.2913    1821(76)          1686.2990         1684.5891                                                                  
   483    25.3413    1848(76)          1685.5018         1683.8438                                                                  
   484    25.3913    1851(76)          1684.7074         1683.0984                                                                  
   485    25.4413    1861(76)          1683.9153         1682.3529                                                                  
   486    25.4913    1808(75)          1683.1256         1681.6075                                                                  
   487    25.5413    1793(75)          1682.3380         1680.8621                                                                  
   488    25.5913    1805(75)          1681.5526         1680.1167                                                                  
   489    25.6413    1728(73)          1680.7690         1679.3712                                                                  
   490    25.6913    1837(75)          1679.9875         1678.6259                                                                  
   491    25.7413    1827(75)          1679.2075         1677.8804                                                                  
   492    25.7913    1617(70)          1678.4293         1677.1350                                                                  
   493    25.8413    1616(70)          1677.6526         1676.3896                                                                  
   494    25.8913    1517(68)          1676.8772         1675.6442                                                                  
   495    25.9413    1589(69)          1676.1034         1674.8988                                                                  
   496    25.9913    1609(70)          1675.3307         1674.1533                                                                  
   497    26.0413    1440(66)          1674.5594         1673.4080                                                                  
   498    26.0913    1512(67)          1673.7894         1672.6626                                                                  
   499    26.1413    1634(70)          1673.0203         1671.9171                                                                  
   500    26.1913    1673(71)          1672.2524         1671.1718                                                                  
   501    26.2413    1774(72)          1671.4855         1670.4263                                                                  
   502    26.2913    1750(72)          1670.7196         1669.6809                                                                  
   503    26.3413    1816(73)          1669.9545         1668.9354                                                                  
   504    26.3913    1840(73)          1669.1904         1668.1901                                                                  
   505    26.4413    1825(73)          1668.4272         1667.4446                                                                  
   506    26.4913    1749(71)          1667.6648         1666.6992                                                                  
   507    26.5413    1778(72)          1667.0969         1666.1475                                                                  
   508    26.5913    1801(72)          1669.5647         1668.6307                                                                  
   509    26.6413    1769(71)          1672.0333         1671.1140                                                                  
   510    26.6913    1838(73)          1674.5027         1673.5973                                                                  
   511    26.7413    1772(71)          1676.9727         1676.0806                                                                  
   512    26.7913    1742(70)          1679.4431         1678.5637                                                                  
   513    26.8413    1816(72)          1681.9146         1681.0471                                                                  
   514    26.8913    1806(71)          1684.3864         1683.5303                                                                  
   515    26.9413    1741(70)          1686.8590         1686.0137                                                                  
   516    26.9913    1736(70)          1689.3319         1688.4968                                                                  
   517    27.0413    1805(71)          1691.8055         1690.9801                                                                  
   518    27.0913    1750(70)          1694.2798         1693.4634                                                                  
   519    27.1413    1838(71)          1696.7546         1695.9467                                                                  
   520    27.1913    1932(73)          1699.2300         1698.4299                                                                  
   521    27.2413    1902(72)          1701.7058         1700.9132                                                                  
   522    27.2913    1861(71)          1704.1820         1703.3964                                                                  
   523    27.3413    1920(72)          1706.6589         1705.8798                                                                  
   524    27.3913    1887(72)          1709.1362         1708.3629                                                                  
   525    27.4413    1893(72)          1711.6143         1710.8463                                                                  
   526    27.4913    1778(69)          1714.0924         1713.3295                                                                  
   527    27.5413    1822(70)          1716.5713         1715.8127                                                                  
   528    27.5913    1815(70)          1719.0505         1718.2960                                                                  
   529    27.6413    1749(68)          1721.5304         1720.7793                                                                  
   530    27.6913    1780(69)          1724.0107         1723.2626                                                                  
   531    27.7413    1803(69)          1726.4915         1725.7458                                                                  
   532    27.7913    1779(69)          1728.9727         1728.2290                                                                  
   533    27.8413    1685(67)          1731.4545         1730.7124                                                                  
   534    27.8913    1649(66)          1733.9366         1733.1956                                                                  
   535    27.9413    1582(64)          1736.4194         1735.6790                                                                  
   536    27.9913    1546(63)          1738.9026         1738.1621                                                                  
   537    28.0413    1665(66)          1741.3864         1740.6454                                                                  
   538    28.0913    1686(66)          1743.8707         1743.1287                                                                  
   539    28.1413    1644(65)          1746.3555         1745.6119                                                                  
   540    28.1913    1652(65)          1748.8408         1748.0952                                                                  
   541    28.2413    1642(65)          1751.3268         1750.5785                                                                  
   542    28.2913    1720(66)          1753.8132         1753.0616                                                                  
   543    28.3413    1724(66)          1756.3004         1755.5450                                                                  
   544    28.3913    1768(67)          1758.7880         1758.0282                                                                  
   545    28.4413    1833(68)          1761.2764         1760.5115                                                                  
   546    28.4913    1836(68)          1763.7654         1762.9948                                                                  
   547    28.5413    1717(66)          1766.2550         1765.4780                                                                  
   548    28.5913    1669(65)          1768.7455         1767.9613                                                                  
   549    28.6413    1695(65)          1771.2366         1770.4446                                                                  
   550    28.6913    1754(66)          1773.7285         1772.9279                                                                  
   551    28.7413    1767(66)          1776.2212         1775.4111                                                                  
   552    28.7913    1833(67)          1778.7147         1777.8943                                                                  
   553    28.8413    1832(67)          1781.2094         1780.3777                                                                  
   554    28.8913    1882(68)          1783.7046         1782.8608                                                                  
   555    28.9413    1768(66)          1786.2010         1785.3441                                                                  
   556    28.9913    1833(67)          1788.6985         1787.8274                                                                  
   557    29.0413    1823(66)          1791.1971         1790.3107                                                                  
   558    29.0913    1836(67)          1793.6970         1792.7939                                                                  
   559    29.1413    1788(66)          1796.1980         1795.2771                                                                  
   560    29.1913    1803(66)          1798.7006         1797.7605                                                                  
   561    29.2413    1854(67)          1801.2043         1800.2437                                                                  
   562    29.2913    1881(67)          1803.7098         1802.7269                                                                  
   563    29.3413    1817(66)          1806.2169         1805.2102                                                                  
   564    29.3913    1684(63)          1808.7260         1807.6935                                                                  
   565    29.4413    1850(66)          1811.2368         1810.1768                                                                  
   566    29.4913    1824(65)          1813.7498         1812.6600                                                                  
   567    29.5413    1898(67)          1816.2650         1815.1433                                                                  
   568    29.5913    1935(67)          1818.7828         1817.6266                                                                  
   569    29.6413    1754(64)          1821.3032         1820.1099                                                                  
   570    29.6913    1804(65)          1823.8265         1822.5931                                                                  
   571    29.7413    1815(65)          1826.3529         1825.0763                                                                  
   572    29.7913    1849(65)          1828.8829         1827.5596                                                                  
   573    29.8413    1729(63)          1831.4167         1830.0428                                                                  
   574    29.8913    1681(62)          1834.2081         1832.5261                                                                  
   575    29.9413    1652(61)          1836.7535         1835.0094                                                                  
   576    29.9913    1710(62)          1839.3041         1837.4927                                                                  
   577    30.0413    1758(63)          1841.8604         1839.9758                                                                  
   578    30.0913    1804(64)          1844.4232         1842.4592                                                                  
   579    30.1413    1816(64)          1846.9929         1844.9424                                                                  
   580    30.1913    1869(65)          1849.5708         1847.4258                                                                  
   581    30.2413    1769(63)          1852.1575         1849.9089                                                                  
   582    30.2913    1803(63)          1854.7543         1852.3922                                                                  
   583    30.3413    1740(62)          1857.3625         1854.8755                                                                  
   584    30.3913    1785(63)          1859.9836         1857.3588                                                                  
   585    30.4413    1778(63)          1862.6196         1859.8420                                                                  
   586    30.4913    1809(63)          1865.2725         1862.3253                                                                  
   587    30.5413    1865(64)          1867.9447         1864.8085                                                                  
   588    30.5913    1911(65)          1870.6398         1867.2919                                                                  
   589    30.6413    1844(63)          1873.3607         1869.7750                                                                  
   590    30.6913    1719(61)          1876.1127         1872.2584                                                                  
   591    30.7413    1758(62)          1878.9005         1874.7416                                                                  
   592    30.7913    1794(62)          1881.7314         1877.2249                                                                  
   593    30.8413    1811(62)          1884.6138         1879.7081                                                                  
   594    30.8913    1932(64)          1887.5577         1882.1914                                                                  
   595    30.9413    1840(63)          1890.5769         1884.6747                                                                  
   596    30.9913    1714(60)          1893.6882         1887.1580                                                                  
   597    31.0413    1791(61)          1896.9138         1889.6411                                                                  
   598    31.0913    1832(62)          1900.2836         1892.1245                                                                  
   599    31.1413    1830(62)          1903.8397         1894.6077                                                                  
   600    31.1913    1840(62)          1907.6586         1897.0911                                                                  
   601    31.2413    1908(63)          1911.9333         1899.5742                                                                  
   602    31.2913    1881(63)          1917.3062         1902.0575                                                                  
   603    31.3413    1815(61)          1925.9744         1904.5408                                                                  
   604    31.3913    1869(62)          1944.7535         1907.0240                                                                  
   605    31.4413    1968(64)          1991.7961         1909.5073                                                                  
   606    31.4913    2198(67)          2107.3494         1911.9906                                                                  
   607    31.5413    2566(72)          2363.2915         1914.4738                                                                  
   608    31.5913    3504(85)          2856.5051         1916.9572                                                                  
   609    31.6413    4947(100)          3667.2075         1919.4403                                                                 
   610    31.6913    7086(120)          4782.4185         1921.9237                                                                 
   611    31.7413    9606(140)          6026.0796         1924.4069                                                                 
   612    31.7913    12065(156)          7067.6138         1926.8901                                                                
   613    31.8413    13727(167)          7547.1743         1929.3734                                                                
   614    31.8913    13871(167)          7275.3740         1931.8567                                                                
   615    31.9413    12409(158)          6362.9780         1934.3400                                                                
   616    31.9913    10293(143)          5142.9365         1936.8232                                                                
   617    32.0413    7725(124)          3971.4004         1939.3064                                                                 
   618    32.0913    5324(103)          3073.0981         1941.7897                                                                 
   619    32.1413    3619(84)          2501.8457         1944.2731                                                                  
   620    32.1913    2707(73)          2194.7905         1946.7563                                                                  
   621    32.2413    2153(65)          2053.6689         1949.2395                                                                  
   622    32.2913    2008(62)          1997.7648         1951.7228                                                                  
   623    32.3413    1843(60)          1978.6196         1954.2059                                                                  
   624    32.3913    1818(59)          1973.1138         1956.6895                                                                  
   625    32.4413    1838(59)          1972.1354         1959.1726                                                                  
   626    32.4913    1792(59)          1972.6300         1961.6558                                                                  
   627    32.5413    1820(59)          1973.6890         1964.1390                                                                  
   628    32.5913    1858(59)          1975.0455         1966.6223                                                                  
   629    32.6413    1827(59)          1976.6051         1969.1057                                                                  
   630    32.6913    1861(59)          1978.3186         1971.5889                                                                  
   631    32.7413    1879(59)          1980.1541         1974.0721                                                                  
   632    32.7913    1905(60)          1982.0874         1976.5554                                                                  
   633    32.8413    1890(59)          1984.1002         1979.0386                                                                  
   634    32.8913    1868(59)          1986.1785         1981.5220                                                                  
   635    32.9413    1872(59)          1988.3107         1984.0052                                                                  
   636    32.9913    1840(58)          1990.4880         1986.4885                                                                  
   637    33.0413    1838(58)          1992.7034         1988.9717                                                                  
   638    33.0913    1885(59)          1994.9510         1991.4550                                                                  
   639    33.1413    1878(59)          1997.2264         1993.9384                                                                  
   640    33.1913    1881(59)          1999.5253         1996.4216                                                                  
   641    33.2413    1896(59)          2001.8445         1998.9048                                                                  
   642    33.2913    1855(58)          2004.1813         2001.3879                                                                  
   643    33.3413    1826(57)          2006.5338         2003.8712                                                                  
   644    33.3913    1832(57)          2008.9000         2006.3546                                                                  
   645    33.4413    1884(58)          2011.2781         2008.8379                                                                  
   646    33.4913    1901(58)          2013.6667         2011.3210                                                                  
   647    33.5413    1982(60)          2016.0648         2013.8043                                                                  
   648    33.5913    1945(59)          2018.4714         2016.2876                                                                  
   649    33.6413    1880(58)          2020.8856         2018.7710                                                                  
   650    33.6913    1919(58)          2023.3064         2021.2542                                                                  
   651    33.7413    1958(59)          2025.7335         2023.7374                                                                  
   652    33.7913    1868(57)          2028.1661         2026.2207                                                                  
   653    33.8413    1913(58)          2030.6038         2028.7039                                                                  
   654    33.8913    1889(57)          2033.0464         2031.1873                                                                  
   655    33.9413    1852(57)          2035.4930         2033.6705                                                                  
   656    33.9913    1868(57)          2037.9436         2036.1538                                                                  
   657    34.0413    1853(57)          2040.3977         2038.6370                                                                  
   658    34.0913    1880(57)          2042.8551         2041.1201                                                                  
   659    34.1413    1896(57)          2045.3160         2043.6036                                                                  
   660    34.1913    1880(57)          2047.7795         2046.0868                                                                  
   661    34.2413    1836(56)          2050.2458         2048.5701                                                                  
   662    34.2913    1896(57)          2052.7148         2051.0532                                                                  
   663    34.3413    1956(58)          2055.1863         2053.5366                                                                  
   664    34.3913    1952(57)          2057.6602         2056.0200                                                                  
   665    34.4413    1939(57)          2060.1360         2058.5032                                                                  
   666    34.4913    1973(58)          2062.6138         2060.9863                                                                  
   667    34.5413    1936(57)          2065.0940         2063.4697                                                                  
   668    34.5913    1905(56)          2067.5759         2065.9529                                                                  
   669    34.6413    1917(56)          2070.0601         2068.4363                                                                  
   670    34.6913    1855(55)          2072.5457         2070.9194                                                                  
   671    34.7413    1890(56)          2075.0330         2073.4026                                                                  
   672    34.7913    1944(57)          2077.5225         2075.8860                                                                  
   673    34.8413    1914(56)          2078.4617         2076.8174                                                                  
   674    34.8913    1906(56)          2077.7212         2076.0674                                                                  
   675    34.9413    1945(56)          2076.9824         2075.3174                                                                  
   676    34.9913    1922(56)          2076.2451         2074.5674                                                                  
   677    35.0413    1915(56)          2075.5098         2073.8174                                                                  
   678    35.0913    1856(55)          2074.7764         2073.0676                                                                  
   679    35.1413    1964(56)          2074.0442         2072.3176                                                                  
   680    35.1913    1921(55)          2073.3140         2071.5676                                                                  
   681    35.2413    1884(55)          2072.5854         2070.8176                                                                  
   682    35.2913    1857(54)          2071.8586         2070.0676                                                                  
   683    35.3413    1966(56)          2071.1335         2069.3176                                                                  
   684    35.3913    1925(55)          2070.4106         2068.5676                                                                  
   685    35.4413    1916(55)          2069.6897         2067.8179                                                                  
   686    35.4913    1965(56)          2068.9705         2067.0679                                                                  
   687    35.5413    1891(54)          2068.2532         2066.3179                                                                  
   688    35.5913    1853(54)          2067.5378         2065.5679                                                                  
   689    35.6413    1902(54)          2066.8250         2064.8179                                                                  
   690    35.6913    1942(55)          2066.1145         2064.0681                                                                  
   691    35.7413    2034(56)          2065.4060         2063.3181                                                                  
   692    35.7913    1993(55)          2064.7002         2062.5681                                                                  
   693    35.8413    1944(55)          2063.9968         2061.8181                                                                  
   694    35.8913    1942(55)          2063.2959         2061.0681                                                                  
   695    35.9413    1963(55)          2062.5984         2060.3184                                                                  
   696    35.9913    1991(55)          2061.9033         2059.5684                                                                  
   697    36.0413    2042(56)          2061.2114         2058.8184                                                                  
   698    36.0913    2034(55)          2060.5229         2058.0684                                                                  
   699    36.1413    2040(55)          2059.8376         2057.3184                                                                  
   700    36.1913    2053(56)          2059.1562         2056.5684                                                                  
   701    36.2413    2008(55)          2059.1694         2055.8186                                                                  
   702    36.2913    1967(54)          2058.5032         2055.0686                                                                  
   703    36.3413    2116(56)          2057.8416         2054.3186                                                                  
   704    36.3913    2095(56)          2057.1848         2053.5686                                                                  
   705    36.4413    2272(58)          2056.5332         2052.8186                                                                  
   706    36.4913    2474(60)          2055.8872         2052.0688                                                                  
   707    36.5413    2420(60)          2055.2468         2051.3188                                                                  
   708    36.5913    2429(60)          2054.6128         2050.5688                                                                  
   709    36.6413    2506(61)          2053.9854         2049.8188                                                                  
   710    36.6913    2369(59)          2053.3650         2049.0688                                                                  
   711    36.7413    2335(58)          2052.7524         2048.3188                                                                  
   712    36.7913    2168(56)          2052.1484         2047.5690                                                                  
   713    36.8413    2062(55)          2051.5532         2046.8191                                                                  
   714    36.8913    2006(54)          2050.9680         2046.0691                                                                  
   715    36.9413    2022(54)          2050.3931         2045.3191                                                                  
   716    36.9913    1954(53)          2049.8298         2044.5692                                                                  
   717    37.0413    1947(53)          2049.2788         2043.8192                                                                  
   718    37.0913    1970(53)          2048.7417         2043.0693                                                                  
   719    37.1413    1978(53)          2048.2192         2042.3193                                                                  
   720    37.1913    1951(52)          2047.7131         2041.5693                                                                  
   721    37.2413    1904(52)          2047.2249         2040.8195                                                                  
   722    37.2913    1941(52)          2046.7562         2040.0695                                                                  
   723    37.3413    2033(53)          2046.3093         2039.3196                                                                  
   724    37.3913    2043(53)          2045.8862         2038.5696                                                                  
   725    37.4413    2154(55)          2045.4896         2037.8196                                                                  
   726    37.4913    2184(55)          2045.1226         2037.0696                                                                  
   727    37.5413    2214(55)          2044.7885         2036.3197                                                                  
   728    37.5913    2270(56)          2044.4910         2035.5697                                                                  
   729    37.6413    2265(56)          2044.2347         2034.8197                                                                  
   730    37.6913    2250(55)          2044.0251         2034.0698                                                                  
   731    37.7413    2250(55)          2043.8678         2033.3198                                                                  
   732    37.7913    2310(56)          2043.7701         2032.5699                                                                  
   733    37.8413    2205(55)          2043.7402         2031.8199                                                                  
   734    37.8913    2141(54)          2043.7878         2031.0699                                                                  
   735    37.9413    2133(54)          2043.9247         2030.3201                                                                  
   736    37.9913    2073(53)          2044.1644         2029.5701                                                                  
   737    38.0413    2065(53)          2044.5239         2028.8202                                                                  
   738    38.0913    2316(56)          2045.0229         2028.0702                                                                  
   739    38.1413    2452(57)          2045.6863         2027.3202                                                                  
   740    38.1913    2687(60)          2046.5437         2026.5702                                                                  
   741    38.2413    3084(64)          2047.6327         2025.8203                                                                  
   742    38.2913    3724(70)          2048.9995         2025.0703                                                                  
   743    38.3413    4497(77)          2050.7031         2024.3204                                                                  
   744    38.3913    5221(83)          2052.8181         2023.5704                                                                  
   745    38.4413    5720(87)          2055.4412         2022.8204                                                                  
   746    38.4913    5871(88)          2058.6990         2022.0706                                                                  
   747    38.5413    5820(87)          2062.7634         2021.3206                                                                  
   748    38.5913    5380(84)          2067.8914         2020.5707                                                                  
   749    38.6413    4740(78)          2074.5737         2019.8207                                                                  
   750    38.6913    4099(73)          2084.1511         2019.0707                                                                  
   751    38.7413    3413(66)          2101.1140         2018.3208                                                                  
   752    38.7913    3052(62)          2140.3328         2017.5708                                                                  
   753    38.8413    2908(61)          2245.4949         2016.8208                                                                  
   754    38.8913    3084(63)          2525.2163         2016.0708                                                                  
   755    38.9413    4066(72)          3200.4482         2015.3209                                                                  
   756    38.9913    6461(90)          4623.0469         2014.5709                                                                  
   757    39.0413    10213(114)          7186.5986         2013.8210                                                                
   758    39.0913    16483(144)         11072.4414         2013.0710                                                                
   759    39.1413    24590(176)         15911.6299         2012.3210                                                                
   760    39.1913    33194(204)         20621.6855         2011.5712                                                                
   761    39.2413    40858(226)         23691.0156         2010.8212                                                                
   762    39.2913    44244(235)         23917.2695         2010.0713                                                                
   763    39.3413    43326(232)         21204.4375         2009.3213                                                                
   764    39.3913    37266(215)         16634.7969         2008.5713                                                                
   765    39.4413    29357(191)         11730.2256         2007.8214                                                                
   766    39.4913    20504(159)          7664.5425         2007.0714                                                                
   767    39.5413    12945(126)          4908.9717         2006.3215                                                                
   768    39.5913    7700(97)          3341.9214         2005.5715                                                                  
   769    39.6413    4563(74)          2581.0293         2004.8215                                                                  
   770    39.6913    3074(61)          2259.2876         2004.0715                                                                  
   771    39.7413    2346(53)          2136.1741         2003.3217                                                                  
   772    39.7913    2075(50)          2089.6750         2002.5717                                                                  
   773    39.8413    2098(50)          2069.3540         2001.8218                                                                  
   774    39.8913    1988(49)          2057.6587         2001.0718                                                                  
   775    39.9413    2024(49)          2049.2229         2000.3218                                                                  
   776    39.9913    1972(48)          2042.4572         1999.5719                                                                  
   777    40.0413    2044(49)          2036.8054         1998.8219                                                                  
   778    40.0913    2001(48)          2031.9915         1998.0720                                                                  
   779    40.1413    1925(47)          2027.8342         1997.3220                                                                  
   780    40.1913    1885(47)          2024.2024         1996.5720                                                                  
   781    40.2413    1930(47)          2020.9951         1995.8220                                                                  
   782    40.2913    1975(48)          2018.1350         1995.0721                                                                  
   783    40.3413    1962(48)          2015.5613         1994.3221                                                                  
   784    40.3913    1979(48)          2013.2258         1993.5721                                                                  
   785    40.4413    1934(47)          2011.0906         1992.8223                                                                  
   786    40.4913    1904(47)          2009.1243         1992.0723                                                                  
   787    40.5413    1851(46)          2007.3021         1991.3224                                                                  
   788    40.5913    1991(48)          2005.6031         1990.5724                                                                  
   789    40.6413    1937(47)          2004.0104         1989.8224                                                                  
   790    40.6913    1918(46)          2002.5100         1989.0725                                                                  
   791    40.7413    1869(46)          2001.0898         1988.3225                                                                  
   792    40.7913    1887(46)          1999.7402         1987.5726                                                                  
   793    40.8413    1891(46)          1998.4525         1986.8226                                                                  
   794    40.8913    1917(46)          1997.2196         1986.0726                                                                  
   795    40.9413    1905(46)          1996.0355         1985.3228                                                                  
   796    40.9913    1876(46)          1994.8949         1984.5728                                                                  
   797    41.0413    1783(44)          1993.7933         1983.8228                                                                  
   798    41.0913    1882(45)          1992.7269         1983.0729                                                                  
   799    41.1413    1908(46)          1991.6923         1982.3229                                                                  
   800    41.1913    1880(45)          1990.6865         1981.5729                                                                  
   801    41.2413    1970(46)          1989.7072         1980.8230                                                                  
   802    41.2913    1869(45)          1988.7518         1980.0730                                                                  
   803    41.3413    2016(47)          1987.8187         1979.3231                                                                  
   804    41.3913    1920(45)          1986.8558         1978.5731                                                                  
   805    41.4413    1920(45)          1985.9625         1977.8231                                                                  
   806    41.4913    1914(45)          1985.0872         1977.0732                                                                  
   807    41.5413    1959(46)          1984.2281         1976.3232                                                                  
   808    41.5913    1846(44)          1983.3848         1975.5732                                                                  
   809    41.6413    1871(45)          1982.5560         1974.8232                                                                  
   810    41.6913    1927(45)          1981.7413         1974.0734                                                                  
   811    41.7413    1995(46)          1980.9398         1973.3234                                                                  
   812    41.7913    2014(46)          1980.1511         1972.5735                                                                  
   813    41.8413    2003(46)          1979.3745         1971.8235                                                                  
   814    41.8913    1912(45)          1978.6097         1971.0735                                                                  
   815    41.9413    1933(45)          1977.8567         1970.3236                                                                  
   816    41.9913    1909(44)          1977.1147         1969.5736                                                                  
   817    42.0413    1918(45)          1976.3840         1968.8237                                                                  
   818    42.0913    1929(45)          1975.9860         1968.0737                                                                  
   819    42.1413    1938(45)          1975.2804         1967.3237                                                                  
   820    42.1913    1900(44)          1974.5858         1966.5739                                                                  
   821    42.2413    1916(44)          1973.9020         1965.8239                                                                  
   822    42.2913    1913(44)          1973.2292         1965.0740                                                                  
   823    42.3413    1924(44)          1972.5676         1964.3240                                                                  
   824    42.3913    1923(44)          1971.9172         1963.5740                                                                  
   825    42.4413    1860(43)          1971.2783         1962.8240                                                                  
   826    42.4913    1885(44)          1970.6514         1962.0741                                                                  
   827    42.5413    1861(43)          1970.0365         1961.3241                                                                  
   828    42.5913    1938(44)          1969.4343         1960.5742                                                                  
   829    42.6413    1897(43)          1968.8451         1959.8242                                                                  
   830    42.6913    1830(43)          1968.2695         1959.0742                                                                  
   831    42.7413    1964(44)          1967.7081         1958.3243                                                                  
   832    42.7913    1947(44)          1967.1616         1957.5743                                                                  
   833    42.8413    1961(44)          1966.6309         1956.8245                                                                  
   834    42.8913    1944(44)          1966.1166         1956.0745                                                                  
   835    42.9413    1936(44)          1965.6196         1955.3245                                                                  
   836    42.9913    1934(43)          1965.1414         1954.5746                                                                  
   837    43.0413    1951(44)          1964.6826         1953.8246                                                                  
   838    43.0913    1953(44)          1964.2450         1953.0746                                                                  
   839    43.1413    1962(44)          1963.8298         1952.3246                                                                  
   840    43.1913    1997(44)          1963.4388         1951.5747                                                                  
   841    43.2413    1920(43)          1963.0735         1950.8247                                                                  
   842    43.2913    1911(43)          1962.7363         1950.0748                                                                  
   843    43.3413    1966(44)          1962.4290         1949.3248                                                                  
   844    43.3913    1947(44)          1962.1543         1948.5748                                                                  
   845    43.4413    1906(43)          1961.9150         1947.8250                                                                  
   846    43.4913    1931(43)          1961.7141         1947.0750                                                                  
   847    43.5413    2005(44)          1961.5552         1946.3251                                                                  
   848    43.5913    1985(44)          1961.4420         1945.5751                                                                  
   849    43.6413    1893(43)          1961.3790         1944.8251                                                                  
   850    43.6913    1939(44)          1961.3713         1944.0752                                                                  
   851    43.7413    1928(43)          1961.4243         1943.3252                                                                  
   852    43.7913    2079(45)          1961.5444         1942.5752                                                                  
   853    43.8413    2040(45)          1961.7391         1941.8253                                                                  
   854    43.8913    1988(44)          1962.0164         1941.0753                                                                  
   855    43.9413    1952(44)          1962.3857         1940.3253                                                                  
   856    43.9913    1871(43)          1962.8584         1939.5754                                                                  
   857    44.0413    1990(44)          1963.4465         1938.8254                                                                  
   858    44.0913    1993(44)          1964.1650         1938.0756                                                                  
   859    44.1413    2031(45)          1965.0309         1937.3256                                                                  
   860    44.1913    2015(44)          1966.0637         1936.5756                                                                  
   861    44.2413    2026(45)          1967.2871         1935.8257                                                                  
   862    44.2913    2038(45)          1968.7286         1935.0757                                                                  
   863    44.3413    2028(45)          1970.4210         1934.3258                                                                  
   864    44.3913    2129(46)          1972.4036         1933.5758                                                                  
   865    44.4413    2128(46)          1974.7230         1932.8258                                                                  
   866    44.4913    2126(46)          1977.4369         1932.0759                                                                  
   867    44.5413    2060(45)          1980.6143         1931.3259                                                                  
   868    44.5913    2076(45)          1984.3409         1930.5759                                                                  
   869    44.6413    2080(45)          1988.7233         1929.8259                                                                  
   870    44.6913    2068(45)          1993.8934         1929.0760                                                                  
   871    44.7413    2110(45)          2000.0193         1928.3260                                                                  
   872    44.7913    2070(45)          2007.3154         1927.5762                                                                  
   873    44.8413    2067(45)          2016.0592         1926.8262                                                                  
   874    44.8913    2066(45)          2026.6167         1926.0762                                                                  
   875    44.9413    2112(45)          2039.4855         1925.3263                                                                  
   876    44.9913    2074(45)          2055.4243         1924.5763                                                                  
   877    45.0413    2112(45)          2075.9287         1923.8264                                                                  
   878    45.0913    2137(46)          2105.1321         1923.0764                                                                  
   879    45.1413    2229(47)          2156.6064         1922.3264                                                                  
   880    45.1913    2393(48)          2273.7307         1921.5764                                                                  
   881    45.2413    2685(51)          2578.9417         1920.8265                                                                  
   882    45.2913    3669(60)          3363.6606         1920.0765                                                                  
   883    45.3413    6070(77)          5193.2480         1919.3267                                                                  
   884    45.3913    11018(104)          8916.8574         1918.5767                                                                
   885    45.4413    19847(140)         15396.8398         1917.8267                                                                
   886    45.4913    34090(184)         24871.9121         1917.0768                                                                
   887    45.5413    52989(230)         36210.1406         1916.3268                                                                
   888    45.5913    73613(271)         46684.1484         1915.5769                                                                
   889    45.6413    90914(301)         52799.1133         1914.8269                                                                
   890    45.6913    100604(317)         52100.4609         1914.0769                                                               
   891    45.7413    98761(314)         44885.3711         1913.3270                                                                
   892    45.7913    85789(292)         33972.5234         1912.5770                                                                
   893    45.8413    66639(258)         22826.0312         1911.8271                                                                
   894    45.8913    45839(214)         13891.9473         1911.0771                                                                
   895    45.9413    28103(167)          7994.2349         1910.3271                                                                
   896    45.9913    15639(125)          4710.2876         1909.5771                                                                
   897    46.0413    8343(91)          3140.7075         1908.8273                                                                  
   898    46.0913    4525(67)          2481.8713         1908.0773                                                                  
   899    46.1413    2997(54)          2227.5608         1907.3273                                                                  
   900    46.1913    2337(48)          2127.7805         1906.5774                                                                  
   901    46.2413    2112(45)          2081.1399         1905.8274                                                                  
   902    46.2913    2054(45)          2052.7363         1905.0775                                                                  
   903    46.3413    2070(45)          2031.8220         1904.3275                                                                  
   904    46.3913    2051(45)          2015.0721         1903.5775                                                                  
   905    46.4413    2025(45)          2001.2139         1902.8276                                                                  
   906    46.4913    2077(45)          1989.5566         1902.0776                                                                  
   907    46.5413    2042(45)          1979.6333         1901.3276                                                                  
   908    46.5913    2004(44)          1971.0983         1900.5778                                                                  
   909    46.6413    1983(44)          1963.6873         1899.8278                                                                  
   910    46.6913    1954(44)          1957.1974         1899.0779                                                                  
   911    46.7413    2001(44)          1951.4675         1898.3279                                                                  
   912    46.7913    2012(44)          1946.3710         1897.5779                                                                  
   913    46.8413    2007(44)          1941.8062         1896.8280                                                                  
   914    46.8913    2001(44)          1937.6906         1896.0780                                                                  
   915    46.9413    1976(44)          1933.9579         1895.3280                                                                  
   916    46.9913    1972(44)          1930.5531         1894.5781                                                                  
   917    47.0413    1997(44)          1927.4305         1893.8281                                                                  
   918    47.0913    1936(44)          1924.5527         1893.0782                                                                  
   919    47.1413    1953(44)          1921.8876         1892.3282                                                                  
   920    47.1913    1881(43)          1919.4089         1891.5782                                                                  
   921    47.2413    1875(43)          1917.0940         1890.8284                                                                  
   922    47.2913    1947(44)          1914.9235         1890.0784                                                                  
   923    47.3413    1973(44)          1912.8810         1889.3284                                                                  
   924    47.3913    1920(43)          1910.9523         1888.5784                                                                  
   925    47.4413    1910(43)          1909.1254         1887.8285                                                                  
   926    47.4913    1946(44)          1907.3895         1887.0785                                                                  
   927    47.5413    1953(44)          1905.8036         1886.3286                                                                  
   928    47.5913    1946(44)          1904.2242         1885.5786                                                                  
   929    47.6413    1943(44)          1902.7119         1884.8286                                                                  
   930    47.6913    1904(43)          1901.2604         1884.0787                                                                  
   931    47.7413    1921(43)          1899.8641         1883.3287                                                                  
   932    47.7913    1900(43)          1898.5187         1882.5789                                                                  
   933    47.8413    1926(43)          1897.2195         1881.8289                                                                  
   934    47.8913    1831(42)          1895.9629         1881.0789                                                                  
   935    47.9413    1964(44)          1894.7458         1880.3290                                                                  
   936    47.9913    1938(44)          1893.5652         1879.5790                                                                  
   937    48.0413    1897(43)          1892.4183         1878.8291                                                                  
   938    48.0913    1918(43)          1891.3030         1878.0791                                                                  
   939    48.1413    1866(43)          1890.2172         1877.3291                                                                  
   940    48.1913    1904(43)          1889.1591         1876.5791                                                                  
   941    48.2413    1920(43)          1888.1271         1875.8292                                                                  
   942    48.2913    1898(43)          1887.1196         1875.0792                                                                  
   943    48.3413    1912(43)          1886.1357         1874.3293                                                                  
   944    48.3913    1899(43)          1885.1741         1873.5793                                                                  
   945    48.4413    1988(44)          1884.2339         1872.8293                                                                  
   946    48.4913    1911(43)          1883.3143         1872.0795                                                                  
   947    48.5413    1888(43)          1882.4147         1871.3295                                                                  
   948    48.5913    1905(43)          1881.5344         1870.5796                                                                  
   949    48.6413    1925(43)          1880.6731         1869.8296                                                                  
   950    48.6913    1835(42)          1879.5792         1869.0796                                                                  
   951    48.7413    1919(43)          1878.7574         1868.3296                                                                  
   952    48.7913    1906(43)          1877.9541         1867.5797                                                                  
   953    48.8413    1845(42)          1877.1688         1866.8297                                                                  
   954    48.8913    1820(42)          1876.4019         1866.0797                                                                  
   955    48.9413    1888(43)          1875.6537         1865.3298                                                                  
   956    48.9913    1899(43)          1874.9242         1864.5798                                                                  
   957    49.0413    1934(43)          1874.2144         1863.8300                                                                  
   958    49.0913    1839(42)          1873.5243         1863.0800                                                                  
   959    49.1413    1832(42)          1872.8550         1862.3300                                                                  
   960    49.1913    1896(43)          1872.2074         1861.5801                                                                  
   961    49.2413    1882(43)          1872.5642         1861.8118                                                                  
   962    49.2913    1886(43)          1873.8511         1862.9496                                                                  
   963    49.3413    1864(43)          1875.1635         1864.0875                                                                  
   964    49.3913    1890(43)          1876.5029         1865.2253                                                                  
   965    49.4413    1865(43)          1877.8717         1866.3633                                                                  
   966    49.4913    1882(43)          1879.2717         1867.5011                                                                  
   967    49.5413    1829(42)          1880.7059         1868.6389                                                                  
   968    49.5913    1917(43)          1882.1772         1869.7767                                                                  
   969    49.6413    1841(42)          1883.6893         1870.9147                                                                  
   970    49.6913    1935(43)          1885.2461         1872.0525                                                                  
   971    49.7413    1980(44)          1886.8523         1873.1903                                                                  
   972    49.7913    1922(43)          1888.5135         1874.3282                                                                  
   973    49.8413    1902(43)          1890.2361         1875.4661                                                                  
   974    49.8913    1831(42)          1892.0276         1876.6040                                                                  
   975    49.9413    1895(43)          1893.8965         1877.7418                                                                  
   976    49.9913    1869(43)          1895.8533         1878.8796                                                                  
   977    50.0413    1881(43)          1897.9100         1880.0175                                                                  
   978    50.0913    1947(44)          1900.0815         1881.1553                                                                  
   979    50.1413    1979(44)          1902.3850         1882.2932                                                                  
   980    50.1913    1917(43)          1904.8412         1883.4310                                                                  
   981    50.2413    1898(43)          1907.4755         1884.5688                                                                  
   982    50.2913    1914(43)          1910.3187         1885.7068                                                                  
   983    50.3413    1880(43)          1913.4086         1886.8446                                                                  
   984    50.3913    1939(44)          1916.7925         1887.9825                                                                  
   985    50.4413    1924(43)          1920.5286         1889.1204                                                                  
   986    50.4913    1942(44)          1924.6912         1890.2582                                                                  
   987    50.5413    2032(45)          1929.3749         1891.3960                                                                  
   988    50.5913    2053(45)          1934.7020         1892.5338                                                                  
   989    50.6413    1989(44)          1940.8333         1893.6718                                                                  
   990    50.6913    1936(44)          1947.9832         1894.8096                                                                  
   991    50.7413    1972(44)          1956.4624         1895.9475                                                                  
   992    50.7913    1913(43)          1966.8105         1897.0853                                                                  
   993    50.8413    1936(44)          1980.3337         1898.2231                                                                  
   994    50.8913    2012(44)          2001.1237         1899.3611                                                                  
   995    50.9413    2009(44)          2042.5094         1900.4989                                                                  
   996    50.9913    2104(45)          2143.8760         1901.6367                                                                  
   997    51.0413    2404(49)          2404.3042         1902.7745                                                                  
   998    51.0913    3076(55)          3028.2178         1903.9124                                                                  
   999    51.1413    4678(68)          4345.8867         1905.0503                                                                  
  1000    51.1913    7880(88)          6732.7285         1906.1882                                                                  
  1001    51.2413    13040(114)         10370.7891         1907.3260                                                                
  1002    51.2913    20661(143)         14922.8750         1908.4639                                                                
  1003    51.3413    29830(172)         19367.8281         1909.6017                                                                
  1004    51.3913    37632(193)         22254.7188         1910.7396                                                                
  1005    51.4413    42517(206)         22416.4160         1911.8774                                                                
  1006    51.4913    43041(207)         19782.6543         1913.0153                                                                
  1007    51.5413    38215(195)         15435.5488         1914.1531                                                                
  1008    51.5913    30432(174)         10836.6689         1915.2910                                                                
  1009    51.6413    21646(147)          7074.1904         1916.4288                                                                
  1010    51.6913    14035(118)          4557.2856         1917.5668                                                                
  1011    51.7413    8299(91)          3144.1260         1918.7046                                                                  
  1012    51.7913    4807(69)          2465.6536         1919.8424                                                                  
  1013    51.8413    3106(55)          2180.4163         1920.9802                                                                  
  1014    51.8913    2369(48)          2070.3835         1922.1182                                                                  
  1015    51.9413    2077(45)          2027.3645         1923.2560                                                                  
  1016    51.9913    2007(44)          2007.4873         1924.3938                                                                  
  1017    52.0413    1992(44)          1995.6799         1925.5317                                                                  
  1018    52.0913    1978(44)          1987.2915         1926.6696                                                                  
  1019    52.1413    1981(44)          1980.8574         1927.8075                                                                  
  1020    52.1913    1919(43)          1975.7953         1928.9453                                                                  
  1021    52.2413    2040(45)          1971.7789         1930.0831                                                                  
  1022    52.2913    2015(44)          1968.5854         1931.2209                                                                  
  1023    52.3413    2013(44)          1966.0494         1932.3588                                                                  
  1024    52.3913    2028(45)          1964.0453         1933.4967                                                                  
  1025    52.4413    2006(44)          1962.4756         1934.6345                                                                  
  1026    52.4913    2001(44)          1961.2645         1935.7725                                                                  
  1027    52.5413    2036(45)          1960.3514         1936.9103                                                                  
  1028    52.5913    1977(44)          1959.6884         1938.0481                                                                  
  1029    52.6413    2007(44)          1959.2365         1939.1860                                                                  
  1030    52.6913    2024(44)          1958.9641         1940.3239                                                                  
  1031    52.7413    2013(44)          1958.8455         1941.4617                                                                  
  1032    52.7913    1988(44)          1958.8590         1942.5995                                                                  
  1033    52.8413    1932(43)          1958.9872         1943.7373                                                                  
  1034    52.8913    1933(43)          1959.2148         1944.8752                                                                  
  1035    52.9413    1925(43)          1959.5297         1946.0131                                                                  
  1036    52.9913    1972(44)          1959.9210         1947.1510                                                                  
  1037    53.0413    1898(43)          1960.3796         1948.2888                                                                  
  1038    53.0913    2025(45)          1960.8979         1949.4266                                                                  
  1039    53.1413    2021(44)          1961.4694         1950.5646                                                                  
  1040    53.1913    1953(44)          1962.0881         1951.7024                                                                  
  1041    53.2413    2006(44)          1962.7493         1952.8402                                                                  
  1042    53.2913    1983(44)          1963.4484         1953.9780                                                                  
  1043    53.3413    1976(44)          1964.1820         1955.1160                                                                  
  1044    53.3913    1952(44)          1964.9467         1956.2538                                                                  
  1045    53.4413    1905(43)          1965.7394         1957.3916                                                                  
  1046    53.4913    1955(44)          1966.5579         1958.5295                                                                  
  1047    53.5413    1938(44)          1967.3995         1959.6674                                                                  
  1048    53.5913    1860(43)          1968.2628         1960.8052                                                                  
  1049    53.6413    1954(44)          1969.1458         1961.9431                                                                  
  1050    53.6913    2022(44)          1970.0466         1963.0809                                                                  
  1051    53.7413    1969(44)          1970.9644         1964.2188                                                                  
  1052    53.7913    1912(43)          1971.8976         1965.3566                                                                  
  1053    53.8413    2012(44)          1972.8452         1966.4945                                                                  
  1054    53.8913    2010(44)          1973.8063         1967.6323                                                                  
  1055    53.9413    1988(44)          1974.7802         1968.7703                                                                  
  1056    53.9913    1972(44)          1975.7656         1969.9081                                                                  
  1057    54.0413    1937(44)          1976.7622         1971.0459                                                                  
  1058    54.0913    1955(44)          1977.7695         1972.1837                                                                  
  1059    54.1413    1952(44)          1978.7869         1973.3217                                                                  
  1060    54.1913    1922(43)          1979.8137         1974.4595                                                                  
  1061    54.2413    1897(43)          1980.8499         1975.5973                                                                  
  1062    54.2913    1961(44)          1981.8949         1976.7351                                                                  
  1063    54.3413    2011(44)          1982.9486         1977.8730                                                                  
  1064    54.3913    1977(44)          1984.0109         1979.0110                                                                  
  1065    54.4413    1988(44)          1985.0812         1980.1488                                                                  
  1066    54.4913    1995(44)          1986.1597         1981.2866                                                                  
  1067    54.5413    2022(44)          1987.2462         1982.4244                                                                  
  1068    54.5913    1954(44)          1988.3409         1983.5623                                                                  
  1069    54.6413    1964(44)          1989.4440         1984.7002                                                                  
  1070    54.6913    1991(44)          1990.5553         1985.8380                                                                  
  1071    54.7413    1955(44)          1991.6750         1986.9758                                                                  
  1072    54.7913    1947(44)          1992.8038         1988.1138                                                                  
  1073    54.8413    2030(45)          1993.9415         1989.2516                                                                  
  1074    54.8913    2062(45)          1995.0891         1990.3895                                                                  
  1075    54.9413    1983(44)          1996.2466         1991.5273                                                                  
  1076    54.9913    2078(45)          1997.4148         1992.6652                                                                  
  1077    55.0413    1976(44)          1998.5946         1993.8030                                                                  
  1078    55.0913    1937(44)          1999.7870         1994.9408                                                                  
  1079    55.1413    1985(44)          2000.3113         1996.0787                                                                  
  1080    55.1913    2078(45)          2001.5393         1997.2166                                                                  
  1081    55.2413    2072(45)          2002.7838         1998.3545                                                                  
  1082    55.2913    2005(44)          2004.0465         1999.4923                                                                  
  1083    55.3413    2029(45)          2005.3296         2000.6301                                                                  
  1084    55.3913    1996(44)          2006.6359         2001.7681                                                                  
  1085    55.4413    1967(44)          2007.9684         2002.9059                                                                  
  1086    55.4913    1980(44)          2009.3308         2004.0437                                                                  
  1087    55.5413    1998(44)          2010.7281         2005.1815                                                                  
  1088    55.5913    1995(44)          2012.1656         2006.3193                                                                  
  1089    55.6413    2000(44)          2013.6506         2007.4573                                                                  
  1090    55.6913    2054(45)          2015.1913         2008.5952                                                                  
  1091    55.7413    1973(44)          2016.7983         2009.7330                                                                  
  1092    55.7913    1959(44)          2018.4851         2010.8708                                                                  
  1093    55.8413    1923(43)          2020.2687         2012.0087                                                                  
  1094    55.8913    2032(45)          2022.1709         2013.1466                                                                  
  1095    55.9413    2123(46)          2024.2200         2014.2844                                                                  
  1096    55.9913    2083(45)          2026.4535         2015.4222                                                                  
  1097    56.0413    2074(45)          2028.9225         2016.5601                                                                  
  1098    56.0913    2050(45)          2031.7030         2017.6980                                                                  
  1099    56.1413    2004(44)          2034.9369         2018.8359                                                                  
  1100    56.1913    2021(44)          2038.9927         2019.9738                                                                  
  1101    56.2413    2108(45)          2045.0514         2021.1116                                                                  
  1102    56.2913    2201(46)          2056.8735         2022.2494                                                                  
  1103    56.3413    2174(46)          2085.0671         2023.3872                                                                  
  1104    56.3913    2261(47)          2154.7424         2024.5251                                                                  
  1105    56.4413    2472(49)          2313.7649         2025.6630                                                                  
  1106    56.4913    3019(54)          2631.3198         2026.8008                                                                  
  1107    56.5413    3971(63)          3171.1230         2027.9387                                                                  
  1108    56.5913    5239(72)          3935.1440         2029.0765                                                                  
  1109    56.6413    7218(84)          4806.4102         2030.2145                                                                  
  1110    56.6913    9137(95)          5545.2314         2031.3523                                                                  
  1111    56.7413    10593(102)          5877.2998         2032.4901                                                                
  1112    56.7913    11300(106)          5657.2266         2033.6279                                                                
  1113    56.8413    10740(103)          4983.8379         2034.7657                                                                
  1114    56.8913    9396(96)          4119.4668         2035.9037                                                                  
  1115    56.9413    7726(87)          3321.3711         2037.0415                                                                  
  1116    56.9913    5980(77)          2734.3193         2038.1794                                                                  
  1117    57.0413    4144(64)          2377.1877         2039.3173                                                                  
  1118    57.0913    3135(55)          2193.7070         2040.4551                                                                  
  1119    57.1413    2549(50)          2112.5520         2041.5930                                                                  
  1120    57.1913    2265(47)          2080.7227         2042.7308                                                                  
  1121    57.2413    2090(45)          2068.9646         2043.8687                                                                  
  1122    57.2913    2002(44)          2064.3999         2045.0065                                                                  
  1123    57.3413    2055(45)          2062.3098         2046.1443                                                                  
  1124    57.3913    2042(45)          2062.2834         2047.2822                                                                  
  1125    57.4413    2061(45)          2061.6719         2048.4202                                                                  
  1126    57.4913    1982(44)          2061.3923         2049.5579                                                                  
  1127    57.5413    2031(45)          2061.3613         2050.6958                                                                  
  1128    57.5913    2138(46)          2061.5232         2051.8335                                                                  
  1129    57.6413    2114(45)          2061.8386         2052.9714                                                                  
  1130    57.6913    2062(45)          2062.2771         2054.1094                                                                  
  1131    57.7413    2015(44)          2062.8159         2055.2473                                                                  
  1132    57.7913    1990(44)          2063.4370         2056.3850                                                                  
  1133    57.8413    2055(45)          2064.1262         2057.5229                                                                  
  1134    57.8913    2047(45)          2064.8723         2058.6609                                                                  
  1135    57.9413    2055(45)          2065.6665         2059.7986                                                                  
  1136    57.9913    2062(45)          2066.5015         2060.9365                                                                  
  1137    58.0413    2070(45)          2067.3708         2062.0742                                                                  
  1138    58.0913    2050(45)          2068.2703         2063.2122                                                                  
  1139    58.1413    2018(44)          2069.1958         2064.3501                                                                  
  1140    58.1913    2097(45)          2070.1436         2065.4880                                                                  
  1141    58.2413    2084(45)          2071.1108         2066.6257                                                                  
  1142    58.2913    2032(45)          2072.0955         2067.7637                                                                  
  1143    58.3413    2081(45)          2073.0950         2068.9014                                                                  
  1144    58.3913    2076(45)          2074.1082         2070.0393                                                                  
  1145    58.4413    2081(45)          2075.1333         2071.1772                                                                  
  1146    58.4913    2007(44)          2076.1689         2072.3149                                                                  
  1147    58.5413    2013(44)          2077.2146         2073.4529                                                                  
  1148    58.5913    2119(46)          2078.2688         2074.5908                                                                  
  1149    58.6413    2114(45)          2079.3303         2075.7285                                                                  
  1150    58.6913    2072(45)          2080.3994         2076.8665                                                                  
  1151    58.7413    2091(45)          2081.4749         2078.0044                                                                  
  1152    58.7913    2040(45)          2082.5559         2079.1421                                                                  
  1153    58.8413    2033(45)          2083.6426         2080.2800                                                                  
  1154    58.8913    2136(46)          2084.7341         2081.4180                                                                  
  1155    58.9413    2138(46)          2085.8301         2082.5557                                                                  
  1156    58.9913    2133(46)          2086.9304         2083.6936                                                                  
  1157    59.0413    2123(46)          2088.0347         2084.8315                                                                  
  1158    59.0913    2101(45)          2089.1421         2085.9692                                                                  
  1159    59.1413    2092(45)          2090.2534         2087.1072                                                                  
  1160    59.1913    2185(46)          2091.3679         2088.2451                                                                  
  1161    59.2413    2091(45)          2092.4851         2089.3828                                                                  
  1162    59.2913    2104(45)          2093.6052         2090.5208                                                                  
  1163    59.3413    2109(45)          2094.7278         2091.6584                                                                  
  1164    59.3913    2141(46)          2095.8533         2092.7964                                                                  
  1165    59.4413    2114(45)          2096.9810         2093.9343                                                                  
  1166    59.4913    2079(45)          2098.1108         2095.0723                                                                  
  1167    59.5413    2044(45)          2099.2427         2096.2100                                                                  
  1168    59.5913    2137(46)          2100.3770         2097.3479                                                                  
  1169    59.6413    2098(45)          2101.5132         2098.4858                                                                  
  1170    59.6913    2175(46)          2102.6511         2099.6235                                                                  
  1171    59.7413    2148(46)          2103.7910         2100.7615                                                                  
  1172    59.7913    2129(46)          2104.9324         2101.8992                                                                  
  1173    59.8413    2131(46)          2106.0759         2103.0371                                                                  
  1174    59.8913    2131(46)          2107.2212         2104.1750                                                                  
  1175    59.9413    2093(45)          2108.3679         2105.3130                                                                  
  1176    59.9913    2125(46)          2109.5161         2106.4507                                                                  
  1177    60.0413    2144(46)          2110.6663         2107.5886                                                                  
  1178    60.0913    2149(46)          2111.8176         2108.7263                                                                  
  1179    60.1413    2102(45)          2112.9707         2109.8643                                                                  
  1180    60.1913    2104(45)          2114.1255         2111.0022                                                                  
  1181    60.2413    2074(45)          2115.2815         2112.1399                                                                  
  1182    60.2913    2206(46)          2116.4392         2113.2778                                                                  
  1183    60.3413    2176(46)          2117.5981         2114.4155                                                                  
  1184    60.3913    2139(46)          2118.7590         2115.5535                                                                  
  1185    60.4413    2092(45)          2119.9211         2116.6914                                                                  
  1186    60.4913    2171(46)          2121.0850         2117.8293                                                                  
  1187    60.5413    2227(47)          2122.2500         2118.9670                                                                  
  1188    60.5913    2224(47)          2123.4167         2120.1050                                                                  
  1189    60.6413    2133(46)          2124.5852         2121.2429                                                                  
  1190    60.6913    2185(46)          2125.7549         2122.3806                                                                  
  1191    60.7413    2104(45)          2126.9263         2123.5186                                                                  
  1192    60.7913    2092(45)          2127.7803         2124.6562                                                                  
  1193    60.8413    2160(46)          2128.9585         2125.7942                                                                  
  1194    60.8913    2142(46)          2130.1382         2126.9321                                                                  
  1195    60.9413    2144(46)          2131.3193         2128.0701                                                                  
  1196    60.9913    2191(46)          2132.5022         2129.2078                                                                  
  1197    61.0413    2243(47)          2133.6868         2130.3457                                                                  
  1198    61.0913    2127(46)          2134.8730         2131.4834                                                                  
  1199    61.1413    2157(46)          2136.0613         2132.6213                                                                  
  1200    61.1913    2263(47)          2137.2512         2133.7593                                                                  
  1201    61.2413    2224(47)          2138.4429         2134.8970                                                                  
  1202    61.2913    2239(47)          2139.6367         2136.0349                                                                  
  1203    61.3413    2195(46)          2140.8328         2137.1729                                                                  
  1204    61.3913    2131(46)          2142.0303         2138.3105                                                                  
  1205    61.4413    2180(46)          2143.2305         2139.4485                                                                  
  1206    61.4913    2132(46)          2144.4326         2140.5864                                                                  
  1207    61.5413    2163(46)          2145.6370         2141.7241                                                                  
  1208    61.5913    2129(46)          2146.8438         2142.8621                                                                  
  1209    61.6413    2212(47)          2148.0530         2144.0000                                                                  
  1210    61.6913    2144(46)          2149.2644         2145.1377                                                                  
  1211    61.7413    2055(45)          2150.5479         2146.2756                                                                  
  1212    61.7913    2123(46)          2151.7656         2147.4136                                                                  
  1213    61.8413    2178(46)          2152.9861         2148.5513                                                                  
  1214    61.8913    2226(47)          2154.2097         2149.6892                                                                  
  1215    61.9413    2207(46)          2155.4363         2150.8271                                                                  
  1216    61.9913    2153(46)          2156.6658         2151.9648                                                                  
  1217    62.0413    2187(46)          2157.8987         2153.1028                                                                  
  1218    62.0913    2126(46)          2159.4331         2154.2407                                                                  
  1219    62.1413    2155(46)          2160.6763         2155.3784                                                                  
  1220    62.1913    2131(46)          2161.9233         2156.5164                                                                  
  1221    62.2413    2153(46)          2163.1746         2157.6543                                                                  
  1222    62.2913    2193(46)          2164.4294         2158.7920                                                                  
  1223    62.3413    2224(47)          2165.6890         2159.9299                                                                  
  1224    62.3913    2215(47)          2166.9531         2161.0679                                                                  
  1225    62.4413    2193(46)          2168.2217         2162.2056                                                                  
  1226    62.4913    2203(46)          2169.4954         2163.3435                                                                  
  1227    62.5413    2211(47)          2170.7742         2164.4812                                                                  
  1228    62.5913    2235(47)          2172.0586         2165.6191                                                                  
  1229    62.6413    2263(47)          2173.3486         2166.7571                                                                  
  1230    62.6913    2192(46)          2174.6448         2167.8950                                                                  
  1231    62.7413    2163(46)          2175.9470         2169.0327                                                                  
  1232    62.7913    2211(47)          2177.2559         2170.1707                                                                  
  1233    62.8413    2245(47)          2178.5718         2171.3083                                                                  
  1234    62.8913    2223(47)          2179.8953         2172.4463                                                                  
  1235    62.9413    2227(47)          2181.2263         2173.5842                                                                  
  1236    62.9913    2256(47)          2182.5654         2174.7219                                                                  
  1237    63.0413    2332(48)          2183.9136         2175.8599                                                                  
  1238    63.0913    2296(47)          2185.2705         2176.9976                                                                  
  1239    63.1413    2315(48)          2186.6375         2178.1357                                                                  
  1240    63.1913    2174(46)          2188.0144         2179.2734                                                                  
  1241    63.2413    2265(47)          2189.4023         2180.4114                                                                  
  1242    63.2913    2269(47)          2190.8015         2181.5491                                                                  
  1243    63.3413    2249(47)          2192.2131         2182.6870                                                                  
  1244    63.3913    2219(47)          2193.6377         2183.8250                                                                  
  1245    63.4413    2231(47)          2195.0759         2184.9626                                                                  
  1246    63.4913    2305(48)          2196.5291         2186.1006                                                                  
  1247    63.5413    2285(47)          2197.9976         2187.2383                                                                  
  1248    63.5913    2285(47)          2199.4832         2188.3762                                                                  
  1249    63.6413    2239(47)          2200.9866         2189.5142                                                                  
  1250    63.6913    2250(47)          2202.5090         2190.6521                                                                  
  1251    63.7413    2256(47)          2204.0518         2191.7898                                                                  
  1252    63.7913    2261(47)          2205.6167         2192.9277                                                                  
  1253    63.8413    2316(48)          2207.2051         2194.0654                                                                  
  1254    63.8913    2301(47)          2208.8188         2195.2034                                                                  
  1255    63.9413    2283(47)          2210.4597         2196.3413                                                                  
  1256    63.9913    2330(48)          2212.1299         2197.4790                                                                  
  1257    64.0413    2240(47)          2213.8318         2198.6169                                                                  
  1258    64.0913    2286(47)          2215.5679         2199.7549                                                                  
  1259    64.1413    2238(47)          2217.3413         2200.8928                                                                  
  1260    64.1913    2262(47)          2219.1545         2202.0305                                                                  
  1261    64.2413    2202(46)          2221.0117         2203.1685                                                                  
  1262    64.2913    2197(46)          2222.9163         2204.3064                                                                  
  1263    64.3413    2289(47)          2224.8726         2205.4441                                                                  
  1264    64.3913    2343(48)          2226.8855         2206.5820                                                                  
  1265    64.4413    2282(47)          2228.9602         2207.7197                                                                  
  1266    64.4913    2322(48)          2231.1030         2208.8577                                                                  
  1267    64.5413    2325(48)          2233.3206         2209.9956                                                                  
  1268    64.5913    2296(47)          2235.6196         2211.1333                                                                  
  1269    64.6413    2339(48)          2238.0103         2212.2712                                                                  
  1270    64.6913    2378(48)          2240.5007         2213.4089                                                                  
  1271    64.7413    2304(48)          2243.1030         2214.5469                                                                  
  1272    64.7913    2280(47)          2245.8298         2215.6848                                                                  
  1273    64.8413    2367(48)          2248.6948         2216.8228                                                                  
  1274    64.8913    2334(48)          2251.7148         2217.9604                                                                  
  1275    64.9413    2387(48)          2254.9094         2219.0984                                                                  
  1276    64.9913    2351(48)          2258.3008         2220.2363                                                                  
  1277    65.0413    2395(48)          2261.9146         2221.3740                                                                  
  1278    65.0913    2313(48)          2265.7805         2222.5120                                                                  
  1279    65.1413    2393(48)          2269.9353         2223.6499                                                                  
  1280    65.1913    2414(49)          2274.4194         2224.7876                                                                  
  1281    65.2413    2371(48)          2279.2844         2225.9255                                                                  
  1282    65.2913    2382(48)          2284.5891         2227.0635                                                                  
  1283    65.3413    2373(48)          2290.4045         2228.2012                                                                  
  1284    65.3913    2324(48)          2296.8191         2229.3391                                                                  
  1285    65.4413    2306(48)          2303.9370         2230.4768                                                                  
  1286    65.4913    2313(48)          2311.8911         2231.6147                                                                  
  1287    65.5413    2351(48)          2320.8420         2232.7527                                                                  
  1288    65.5913    2373(48)          2330.9912         2233.8904                                                                  
  1289    65.6413    2510(50)          2342.5984         2235.0283                                                                  
  1290    65.6913    2289(47)          2355.9883         2236.1660                                                                  
  1291    65.7413    2375(48)          2371.5901         2237.3040                                                                  
  1292    65.7913    2340(48)          2389.9604         2238.4419                                                                  
  1293    65.8413    2377(48)          2411.8457         2239.5798                                                                  
  1294    65.8913    2452(49)          2438.3123         2240.7178                                                                  
  1295    65.9413    2427(49)          2471.0818         2241.8555                                                                  
  1296    65.9913    2443(49)          2513.9507         2242.9934                                                                  
  1297    66.0413    2562(50)          2577.8896         2244.1313                                                                  
  1298    66.0913    2541(50)          2698.1538         2245.2690                                                                  
  1299    66.1413    2807(52)          2978.2395         2246.4070                                                                  
  1300    66.1913    3700(60)          3678.7808         2247.5447                                                                  
  1301    66.2413    5580(74)          5336.6660         2248.6826                                                                  
  1302    66.2913    9539(97)          8808.2773         2249.8206                                                                  
  1303    66.3413    17283(131)         15033.1562         2250.9583                                                                
  1304    66.3913    29252(171)         24383.3477         2252.0962                                                                
  1305    66.4413    45795(213)         35815.9375         2253.2339                                                                
  1306    66.4913    64292(253)         46533.4531         2254.3718                                                                
  1307    66.5413    80456(283)         52752.6406         2255.5098                                                                
  1308    66.5913    89233(298)         51752.1406         2256.6475                                                                
  1309    66.6413    88831(298)         43999.5820         2257.7854                                                                
  1310    66.6913    79926(282)         32744.6230         2258.9233                                                                
  1311    66.7413    63846(252)         21657.6133         2260.0610                                                                
  1312    66.7913    46006(214)         13101.0488         2261.1992                                                                
  1313    66.8413    29991(173)          7676.9849         2262.3369                                                                
  1314    66.8913    17716(133)          4780.4434         2263.4749                                                                
  1315    66.9413    9706(98)          3447.7124         2264.6125                                                                  
  1316    66.9913    5498(74)          2898.6831         2265.7505                                                                  
  1317    67.0413    3675(60)          2679.7625         2266.8884                                                                  
  1318    67.0913    2782(52)          2582.7009         2268.0261                                                                  
  1319    67.1413    2537(50)          2528.5269         2269.1641                                                                  
  1320    67.1913    2583(50)          2491.2734         2270.3018                                                                  
  1321    67.2413    2641(51)          2462.7412         2271.4397                                                                  
  1322    67.2913    2471(49)          2439.9546         2272.5776                                                                  
  1323    67.3413    2438(49)          2421.4294         2273.7153                                                                  
  1324    67.3913    2446(49)          2406.2007         2274.8533                                                                  
  1325    67.4413    2559(50)          2393.5820         2275.9912                                                                  
  1326    67.4913    2416(49)          2383.0496         2277.1289                                                                  
  1327    67.5413    2375(48)          2374.2095         2278.2668                                                                  
  1328    67.5913    2406(49)          2366.7559         2279.4048                                                                  
  1329    67.6413    2366(48)          2360.4448         2280.5425                                                                  
  1330    67.6913    2463(49)          2355.0884         2281.6804                                                                  
  1331    67.7413    2411(49)          2350.5315         2282.8184                                                                  
  1332    67.7913    2422(49)          2346.6519         2283.9563                                                                  
  1333    67.8413    2432(49)          2343.3499         2285.0940                                                                  
  1334    67.8913    2395(48)          2340.5417         2286.2319                                                                  
  1335    67.9413    2485(49)          2338.1606         2287.3696                                                                  
  1336    67.9913    2456(49)          2336.1492         2288.5076                                                                  
  1337    68.0413    2477(49)          2334.4600         2289.6455                                                                  
  1338    68.0913    2423(49)          2333.0537         2290.7832                                                                  
  1339    68.1413    2357(48)          2331.8965         2291.9211                                                                  
  1340    68.1913    2440(49)          2330.9592         2293.0588                                                                  
  1341    68.2413    2424(49)          2330.2180         2294.1968                                                                  
  1342    68.2913    2433(49)          2329.6516         2295.3347                                                                  
  1343    68.3413    2450(49)          2329.2419         2296.4724                                                                  
  1344    68.3913    2352(48)          2328.9739         2297.6104                                                                  
  1345    68.4413    2286(47)          2328.8335         2298.7480                                                                  
  1346    68.4913    2390(48)          2328.8098         2299.8862                                                                  
  1347    68.5413    2461(49)          2328.8918         2301.0239                                                                  
  1348    68.5913    2346(48)          2329.0718         2302.1619                                                                  
  1349    68.6413    2336(48)          2329.3418         2303.2998                                                                  
  1350    68.6913    2304(48)          2329.6948         2304.4375                                                                  
  1351    68.7413    2380(48)          2330.1260         2305.5754                                                                  
  1352    68.7913    2387(48)          2330.6304         2306.7134                                                                  
  1353    68.8413    2381(48)          2331.2034         2307.8511                                                                  
  1354    68.8913    2258(47)          2331.8420         2308.9890                                                                  
  1355    68.9413    2332(48)          2332.5435         2310.1267                                                                  
  1356    68.9913    2336(48)          2333.3054         2311.2646                                                                  
  1357    69.0413    2360(48)          2334.1262         2312.4026                                                                  
  1358    69.0913    2317(48)          2335.0044         2313.5403                                                                  
  1359    69.1413    2394(48)          2335.9399         2314.6782                                                                  
  1360    69.1913    2320(48)          2336.9321         2315.8159                                                                  
  1361    69.2413    2308(48)          2337.9819         2316.9539                                                                  
  1362    69.2913    2274(47)          2339.0901         2318.0918                                                                  
  1363    69.3413    2371(48)          2340.2578         2319.2295                                                                  
  1364    69.3913    2323(48)          2341.4880         2320.3674                                                                  
  1365    69.4413    2406(49)          2342.7832         2321.5054                                                                  
  1366    69.4913    2336(48)          2344.1472         2322.6433                                                                  
  1367    69.5413    2314(48)          2345.5845         2323.7812                                                                  
  1368    69.5913    2397(48)          2347.1006         2324.9189                                                                  
  1369    69.6413    2350(48)          2348.7031         2326.0569                                                                  
  1370    69.6913    2431(49)          2350.3994         2327.1946                                                                  
  1371    69.7413    2448(49)          2352.2004         2328.3325                                                                  
  1372    69.7913    2424(49)          2354.1174         2329.4705                                                                  
  1373    69.8413    2481(49)          2356.1650         2330.6082                                                                  
  1374    69.8913    2370(48)          2358.3608         2331.7461                                                                  
  1375    69.9413    2372(48)          2360.7256         2332.8838                                                                  
  1376    69.9913    2455(49)          2363.2856         2334.0217                                                                  
  1377    70.0413    2435(49)          2366.0723         2335.1597                                                                  
  1378    70.0913    2406(49)          2369.1230         2336.2974                                                                  
  1379    70.1413    2402(49)          2372.4873         2337.4353                                                                  
  1380    70.1913    2362(48)          2376.2241         2338.5732                                                                  
  1381    70.2413    2417(49)          2380.4094         2339.7109                                                                  
  1382    70.2913    2438(49)          2385.1394         2340.8489                                                                  
  1383    70.3413    2362(48)          2390.5378         2341.9868                                                                  
  1384    70.3913    2423(49)          2396.7671         2343.1245                                                                  
  1385    70.4413    2539(50)          2404.0408         2344.2625                                                                  
  1386    70.4913    2498(49)          2412.6545         2345.4004                                                                  
  1387    70.5413    2480(49)          2423.0447         2346.5383                                                                  
  1388    70.5913    2454(49)          2436.0085         2347.6760                                                                  
  1389    70.6413    2390(48)          2453.5535         2348.8140                                                                  
  1390    70.6913    2410(49)          2481.8000         2349.9517                                                                  
  1391    70.7413    2534(50)          2539.5444         2351.0896                                                                  
  1392    70.7913    2670(51)          2678.3716         2352.2275                                                                  
  1393    70.8413    3074(55)          3014.2852         2353.3652                                                                  
  1394    70.8913    3791(61)          3761.2305         2354.5032                                                                  
  1395    70.9413    5310(72)          5208.8896         2355.6409                                                                  
  1396    70.9913    8149(90)          7590.3022         2356.7788                                                                  
  1397    71.0413    12545(112)         10834.9678         2357.9167                                                                
  1398    71.0913    17636(132)         14356.0439         2359.0544                                                                
  1399    71.1413    23209(152)         17095.2539         2360.1924                                                                
  1400    71.1913    27037(164)         17952.3965         2361.3303                                                                
  1401    71.2413    28868(169)         16527.6738         2362.4683                                                                
  1402    71.2913    28009(167)         13471.2090         2363.6060                                                                
  1403    71.3413    24891(157)          9937.1631         2364.7439                                                                
  1404    71.3913    19675(140)          6885.6367         2365.8818                                                                
  1405    71.4413    14342(119)          4759.7490         2367.0195                                                                
  1406    71.4913    9764(98)          3524.6646         2368.1575                                                                  
  1407    71.5413    6312(79)          2912.8225         2369.2954                                                                  
  1408    71.5913    4189(64)          2646.7322         2370.4331                                                                  
  1409    71.6413    3172(56)          2539.3000         2371.5710                                                                  
  1410    71.6913    2761(52)          2494.4561         2372.7087                                                                  
  1411    71.7413    2587(50)          2472.1416         2373.8467                                                                  
  1412    71.7913    2477(49)          2458.2131         2374.9846                                                                  
  1413    71.8413    2385(48)          2448.1228         2376.1223                                                                  
  1414    71.8913    2451(49)          2440.3333         2377.2603                                                                  
  1415    71.9413    2397(48)          2434.1824         2378.3979                                                                  
  1416    71.9913    2454(49)          2429.2791         2379.5359                                                                  
  1417    72.0413    2337(48)          2425.3545         2380.6738                                                                  
  1418    72.0913    2389(48)          2422.2097         2381.8115                                                                  
  1419    72.1413    2407(49)          2419.6926         2382.9497                                                                  
  1420    72.1913    2425(49)          2417.6873         2384.0874                                                                  
  1421    72.2413    2380(48)          2416.1025         2385.2253                                                                  
  1422    72.2913    2439(49)          2414.8669         2386.3633                                                                  
  1423    72.3413    2388(48)          2413.9241         2387.5010                                                                  
  1424    72.3913    2380(48)          2413.2275         2388.6389                                                                  
  1425    72.4413    2395(48)          2412.7402         2389.7766                                                                  
  1426    72.4913    2366(48)          2412.4321         2390.9146                                                                  
  1427    72.5413    2387(48)          2412.2778         2392.0525                                                                  
  1428    72.5913    2438(49)          2412.2566         2393.1902                                                                  
  1429    72.6413    2428(49)          2412.3513         2394.3281                                                                  
  1430    72.6913    2391(48)          2412.5471         2395.4658                                                                  
  1431    72.7413    2329(48)          2412.8320         2396.6038                                                                  
  1432    72.7913    2399(48)          2413.1953         2397.7417                                                                  
  1433    72.8413    2303(47)          2413.6284         2398.8794                                                                  
  1434    72.8913    2376(48)          2414.1233         2400.0173                                                                  
  1435    72.9413    2359(48)          2414.6738         2401.1553                                                                  
  1436    72.9913    2426(49)          2415.2739         2402.2930                                                                  
  1437    73.0413    2475(49)          2415.9192         2403.4312                                                                  
  1438    73.0913    2412(49)          2416.6047         2404.5688                                                                  
  1439    73.1413    2423(49)          2417.3271         2405.7065                                                                  
  1440    73.1913    2436(49)          2417.6045         2406.3652                                                                  
  1441    73.2413    2448(49)          2417.7771         2406.8887                                                                  
  1442    73.2913    2410(49)          2417.9783         2407.4119                                                                  
  1443    73.3413    2432(49)          2418.2058         2407.9353                                                                  
  1444    73.3913    2402(49)          2418.4578         2408.4587                                                                  
  1445    73.4413    2437(49)          2418.7322         2408.9819                                                                  
  1446    73.4913    2405(49)          2419.0283         2409.5054                                                                  
  1447    73.5413    2449(49)          2419.3447         2410.0288                                                                  
  1448    73.5913    2371(48)          2419.6802         2410.5520                                                                  
  1449    73.6413    2403(49)          2420.0342         2411.0754                                                                  
  1450    73.6913    2423(49)          2420.4058         2411.5986                                                                  
  1451    73.7413    2377(48)          2420.7947         2412.1221                                                                  
  1452    73.7913    2388(48)          2421.2002         2412.6455                                                                  
  1453    73.8413    2401(49)          2421.6223         2413.1687                                                                  
  1454    73.8913    2414(49)          2422.0608         2413.6921                                                                  
  1455    73.9413    2442(49)          2422.5161         2414.2156                                                                  
  1456    73.9913    2445(49)          2422.9880         2414.7388                                                                  
  1457    74.0413    2444(49)          2423.4773         2415.2622                                                                  
  1458    74.0913    2414(49)          2423.9846         2415.7856                                                                  
  1459    74.1413    2494(49)          2424.5103         2416.3088                                                                  
  1460    74.1913    2454(49)          2425.0562         2416.8323                                                                  
  1461    74.2413    2469(49)          2425.6233         2417.3557                                                                  
  1462    74.2913    2377(48)          2426.2131         2417.8789                                                                  
  1463    74.3413    2430(49)          2426.8286         2418.4023                                                                  
  1464    74.3913    2493(49)          2427.4722         2418.9258                                                                  
  1465    74.4413    2428(49)          2428.1465         2419.4490                                                                  
  1466    74.4913    2422(49)          2428.8564         2419.9724                                                                  
  1467    74.5413    2523(50)          2429.6069         2420.4958                                                                  
  1468    74.5913    2406(49)          2430.4038         2421.0190                                                                  
  1469    74.6413    2486(49)          2431.2551         2421.5425                                                                  
  1470    74.6913    2467(49)          2432.1704         2422.0657                                                                  
  1471    74.7413    2487(49)          2433.1626         2422.5891                                                                  
  1472    74.7913    2575(50)          2434.2471         2423.1125                                                                  
  1473    74.8413    2582(50)          2435.4436         2423.6357                                                                  
  1474    74.8913    2466(49)          2436.7793         2424.1592                                                                  
  1475    74.9413    2561(50)          2438.2893         2424.6826                                                                  
  1476    74.9913    2489(49)          2440.0217         2425.2058                                                                  
  1477    75.0413    2549(50)          2442.0510         2425.7292                                                                  
  1478    75.0913    2540(50)          2444.5181         2426.2527                                                                  
  1479    75.1413    2524(50)          2447.7888         2426.7759                                                                  
  1480    75.1913    2565(50)          2452.9636         2427.2993                                                                  
  1481    75.2413    2504(50)          2463.2839         2427.8228                                                                  
  1482    75.2913    2507(50)          2487.1582         2428.3459                                                                  
  1483    75.3413    2598(50)          2542.8511         2428.8694                                                                  
  1484    75.3913    2789(52)          2662.8713         2429.3928                                                                  
  1485    75.4413    2851(53)          2886.8584         2429.9160                                                                  
  1486    75.4913    3185(56)          3245.8264         2430.4395                                                                  
  1487    75.5413    3756(61)          3725.5103         2430.9629                                                                  
  1488    75.5913    4081(63)          4239.8633         2431.4861                                                                  
  1489    75.6413    4440(66)          4639.0791         2432.0095                                                                  
  1490    75.6913    4908(70)          4768.3594         2432.5327                                                                  
  1491    75.7413    5221(72)          4569.5010         2433.0562                                                                  
  1492    75.7913    5190(72)          4129.7227         2433.5796                                                                  
  1493    75.8413    4760(68)          3612.9053         2434.1028                                                                  
  1494    75.8913    4227(65)          3156.6145         2434.6262                                                                  
  1495    75.9413    3774(61)          2829.9087         2435.1497                                                                  
  1496    75.9913    3383(58)          2633.8911         2435.6729                                                                  
  1497    76.0413    3085(55)          2533.3030         2436.1963                                                                  
  1498    76.0913    2797(52)          2488.0657         2436.7197                                                                  
  1499    76.1413    2774(52)          2469.4419         2437.2429                                                                  
  1500    76.1913    2818(53)          2461.8135         2437.7664                                                                  
  1501    76.2413    2748(52)          2458.2920         2438.2898                                                                  
  1502    76.2913    2670(51)          2456.3125         2438.8130                                                                  
  1503    76.3413    2657(51)          2455.0188         2439.3364                                                                  
  1504    76.3913    2614(51)          2454.1206         2439.8599                                                                  
  1505    76.4413    2696(51)          2453.4993         2440.3831                                                                  
  1506    76.4913    2714(52)          2453.0886         2440.9065                                                                  
  1507    76.5413    2803(52)          2452.8435         2441.4299                                                                  
  1508    76.5913    2692(51)          2452.7312         2441.9531                                                                  
  1509    76.6413    2688(51)          2452.7268         2442.4766                                                                  
  1510    76.6913    2707(52)          2452.8113         2442.9998                                                                  
  1511    76.7413    2654(51)          2452.9697         2443.5232                                                                  
  1512    76.7913    2697(51)          2453.1904         2444.0466                                                                  
  1513    76.8413    2608(51)          2453.4644         2444.5698                                                                  
  1514    76.8913    2693(51)          2453.7842         2445.0933                                                                  
  1515    76.9413    2730(52)          2454.1438         2445.6167                                                                  
  1516    76.9913    2728(52)          2454.5383         2446.1399                                                                  
  1517    77.0413    2697(51)          2454.9646         2446.6633                                                                  
  1518    77.0913    2643(51)          2455.4189         2447.1868                                                                  
  1519    77.1413    2745(52)          2455.8989         2447.7100                                                                  
  1520    77.1913    2677(51)          2456.4028         2448.2334                                                                  
  1521    77.2413    2622(51)          2456.9287         2448.7568                                                                  
  1522    77.2913    2596(50)          2457.4758         2449.2803                                                                  
  1523    77.3413    2651(51)          2458.0427         2449.8035                                                                  
  1524    77.3913    2600(50)          2458.6289         2450.3269                                                                  
  1525    77.4413    2543(50)          2459.2339         2450.8501                                                                  
  1526    77.4913    2633(51)          2459.8579         2451.3735                                                                  
  1527    77.5413    2593(50)          2460.5005         2451.8970                                                                  
  1528    77.5913    2527(50)          2461.1616         2452.4202                                                                  
  1529    77.6413    2673(51)          2461.8420         2452.9436                                                                  
  1530    77.6913    2667(51)          2462.5417         2453.4668                                                                  
  1531    77.7413    2699(51)          2463.2622         2453.9902                                                                  
  1532    77.7913    2685(51)          2464.0039         2454.5137                                                                  
  1533    77.8413    2611(51)          2464.7678         2455.0371                                                                  
  1534    77.8913    2660(51)          2465.5552         2455.5603                                                                  
  1535    77.9413    2650(51)          2466.3677         2456.0837                                                                  
  1536    77.9913    2609(51)          2467.2073         2456.6072                                                                  
  1537    78.0413    2591(50)          2468.0752         2457.1304                                                                  
  1538    78.0913    2638(51)          2468.9749         2457.6538                                                                  
  1539    78.1413    2622(51)          2469.9082         2458.1772                                                                  
  1540    78.1913    2557(50)          2470.8782         2458.7004                                                                  
  1541    78.2413    2632(51)          2471.8892         2459.2239                                                                  
  1542    78.2913    2552(50)          2472.9448         2459.7473                                                                  
  1543    78.3413    2566(50)          2474.0491         2460.2705                                                                  
  1544    78.3913    2529(50)          2475.2085         2460.7939                                                                  
  1545    78.4413    2525(50)          2476.4285         2461.3171                                                                  
  1546    78.4913    2609(51)          2477.7168         2461.8406                                                                  
  1547    78.5413    2575(50)          2479.0818         2462.3640                                                                  
  1548    78.5913    2510(50)          2480.5325         2462.8872                                                                  
  1549    78.6413    2496(49)          2482.0815         2463.4106                                                                  
  1550    78.6913    2607(51)          2483.7417         2463.9341                                                                  
  1551    78.7413    2690(51)          2485.5291         2464.4573                                                                  
  1552    78.7913    2580(50)          2487.4634         2464.9807                                                                  
  1553    78.8413    2567(50)          2489.5667         2465.5042                                                                  
  1554    78.8913    2542(50)          2491.8669         2466.0273                                                                  
  1555    78.9413    2621(51)          2494.3977         2466.5508                                                                  
  1556    78.9913    2606(51)          2497.2002         2467.0742                                                                  
  1557    79.0413    2616(51)          2500.3242         2467.5974                                                                  
  1558    79.0913    2671(51)          2503.8325         2468.1208                                                                  
  1559    79.1413    2566(50)          2507.8047         2468.6443                                                                  
  1560    79.1913    2526(50)          2512.3389         2469.1675                                                                  
  1561    79.2413    2578(50)          2517.5652         2469.6909                                                                  
  1562    79.2913    2627(51)          2523.6489         2470.2144                                                                  
  1563    79.3413    2678(51)          2530.8081         2470.7375                                                                  
  1564    79.3913    2643(51)          2539.3420         2471.2610                                                                  
  1565    79.4413    2615(51)          2549.9709         2471.7842                                                                  
  1566    79.4913    2635(51)          2562.8625         2472.3076                                                                  
  1567    79.5413    2610(51)          2580.0261         2472.8311                                                                  
  1568    79.5913    2675(51)          2606.4368         2473.3542                                                                  
  1569    79.6413    2741(52)          2657.0056         2473.8777                                                                  
  1570    79.6913    2889(53)          2772.1506         2474.4011                                                                  
  1571    79.7413    3147(56)          3045.0806         2474.9243                                                                  
  1572    79.7913    3774(61)          3650.0173         2475.4478                                                                  
  1573    79.8413    5054(71)          4834.8940         2475.9712                                                                  
  1574    79.8913    7371(85)          6826.7178         2476.4944                                                                  
  1575    79.9413    10713(103)          9633.7324         2477.0178                                                                
  1576    79.9913    14943(122)         12846.7773         2477.5413                                                                
  1577    80.0413    19467(139)         15608.8770         2478.0645                                                                
  1578    80.0913    23744(154)         16897.0957         2478.5879                                                                
  1579    80.1413    25288(159)         16131.4980         2479.1113                                                                
  1580    80.1913    25129(158)         13666.4014         2479.6345                                                                
  1581    80.2413    23193(152)         10475.8750         2480.1580                                                                
  1582    80.2913    19469(139)          7502.4600         2480.6814                                                                
  1583    80.3413    15311(123)          5282.6611         2481.2046                                                                
  1584    80.3913    11166(105)          3902.5977         2481.7280                                                                
  1585    80.4413    7700(87)          3171.3655         2482.2512                                                                  
  1586    80.4913    5404(73)          2832.4058         2482.7747                                                                  
  1587    80.5413    4027(63)          2688.6726         2483.2981                                                                  
  1588    80.5913    3185(56)          2627.7368         2483.8213                                                                  
  1589    80.6413    2860(53)          2598.1726         2484.3447                                                                  
  1590    80.6913    2799(52)          2580.4712         2484.8682                                                                  
  1591    80.7413    2781(52)          2567.8774         2485.3914                                                                  
  1592    80.7913    2752(52)          2558.1472         2485.9148                                                                  
  1593    80.8413    2722(52)          2550.3789         2486.4382                                                                  
  1594    80.8913    2680(51)          2544.0833         2486.9614                                                                  
  1595    80.9413    2725(52)          2538.9387         2487.4849                                                                  
  1596    80.9913    2779(52)          2534.7068         2488.0083                                                                  
  1597    81.0413    2629(51)          2531.2097         2488.5315                                                                  
  1598    81.0913    2592(50)          2528.3120         2489.0549                                                                  
  1599    81.1413    2677(51)          2525.9062         2489.5784                                                                  
  1600    81.1913    2677(51)          2523.9099         2490.1016                                                                  
  1601    81.2413    2611(51)          2522.2563         2490.6250                                                                  
  1602    81.2913    2582(50)          2520.8926         2491.1484                                                                  
  1603    81.3413    2641(51)          2519.7764         2491.6716                                                                  
  1604    81.3913    2710(52)          2518.8728         2492.1951                                                                  
  1605    81.4413    2657(51)          2518.1533         2492.7183                                                                  
  1606    81.4913    2676(51)          2517.5947         2493.2417                                                                  
  1607    81.5413    2754(52)          2517.1772         2493.7651                                                                  
  1608    81.5913    2717(52)          2516.8853         2494.2883                                                                  
  1609    81.6413    2576(50)          2516.7051         2494.8118                                                                  
  1610    81.6913    2637(51)          2516.6260         2495.3352                                                                  
  1611    81.7413    2747(52)          2516.6379         2495.8584                                                                  
  1612    81.7913    2607(51)          2516.7341         2496.3818                                                                  
  1613    81.8413    2653(51)          2516.9075         2496.9053                                                                  
  1614    81.8913    2612(51)          2517.1528         2497.4285                                                                  
  1615    81.9413    2586(50)          2517.4663         2497.9519                                                                  
  1616    81.9913    2639(51)          2517.8442         2498.4753                                                                  
  1617    82.0413    2618(51)          2518.2837         2498.9985                                                                  
  1618    82.0913    2707(52)          2518.7834         2499.5220                                                                  
  1619    82.1413    2594(50)          2519.3420         2500.0454                                                                  
  1620    82.1913    2591(50)          2519.9585         2500.5686                                                                  
  1621    82.2413    2681(51)          2520.6335         2501.0920                                                                  
  1622    82.2913    2653(51)          2521.3674         2501.6155                                                                  
  1623    82.3413    2733(52)          2522.1611         2502.1387                                                                  
  1624    82.3913    2664(51)          2523.0173         2502.6621                                                                  
  1625    82.4413    2619(51)          2523.9375         2503.1853                                                                  
  1626    82.4913    2606(51)          2524.9255         2503.7087                                                                  
  1627    82.5413    2664(51)          2525.9856         2504.2322                                                                  
  1628    82.5913    2656(51)          2527.1216         2504.7554                                                                  
  1629    82.6413    2637(51)          2528.3403         2505.2788                                                                  
  1630    82.6913    2598(50)          2529.6482         2505.8022                                                                  
  1631    82.7413    2652(51)          2531.0532         2506.3254                                                                  
  1632    82.7913    2681(51)          2532.5654         2506.8489                                                                  
  1633    82.8413    2653(51)          2534.1953         2507.3723                                                                  
  1634    82.8913    2611(51)          2535.9565         2507.8955                                                                  
  1635    82.9413    2578(50)          2537.8647         2508.4189                                                                  
  1636    82.9913    2589(50)          2539.9382         2508.9424                                                                  
  1637    83.0413    2617(51)          2542.1985         2509.4658                                                                  
  1638    83.0913    2610(51)          2545.2722         2510.5901                                                                  
  1639    83.1413    2580(50)          2548.7407         2511.8650                                                                  
  1640    83.1913    2715(52)          2552.4893         2513.1396                                                                  
  1641    83.2413    2638(51)          2556.5637         2514.4146                                                                  
  1642    83.2913    2585(50)          2561.0183         2515.6895                                                                  
  1643    83.3413    2753(52)          2565.9189         2516.9641                                                                  
  1644    83.3913    2670(51)          2571.3489         2518.2390                                                                  
  1645    83.4413    2692(51)          2577.4089         2519.5137                                                                  
  1646    83.4913    2687(51)          2584.2292         2520.7886                                                                  
  1647    83.5413    2773(52)          2591.9722         2522.0635                                                                  
  1648    83.5913    2675(51)          2600.8447         2523.3381                                                                  
  1649    83.6413    2647(51)          2611.1211         2524.6130                                                                  
  1650    83.6913    2625(51)          2623.1553         2525.8877                                                                  
  1651    83.7413    2542(50)          2637.5518         2527.1626                                                                  
  1652    83.7913    2678(51)          2654.7390         2528.4375                                                                  
  1653    83.8413    2650(51)          2675.8818         2529.7122                                                                  
  1654    83.8913    2784(52)          2703.0847         2530.9871                                                                  
  1655    83.9413    2819(53)          2741.9597         2532.2620                                                                  
  1656    83.9913    2759(52)          2809.6602         2533.5366                                                                  
  1657    84.0413    2949(54)          2955.8457         2534.8115                                                                  
  1658    84.0913    3371(58)          3304.4270         2536.0864                                                                  
  1659    84.1413    4295(65)          4108.0225         2537.3611                                                                  
  1660    84.1913    6041(77)          5761.9482         2538.6360                                                                  
  1661    84.2413    9253(96)          8683.7168         2539.9106                                                                  
  1662    84.2913    14179(119)         12997.0098         2541.1855                                                                
  1663    84.3413    20423(142)         18151.1094         2542.4604                                                                
  1664    84.3913    26974(164)         22791.9023         2543.7351                                                                
  1665    84.4413    32511(180)         25155.5488         2545.0100                                                                
  1666    84.4913    35853(189)         24120.9590         2546.2849                                                                
  1667    84.5413    36014(189)         20200.6289         2547.5596                                                                
  1668    84.5913    32942(181)         15055.4258         2548.8345                                                                
  1669    84.6413    28504(168)         10289.2832         2550.1094                                                                
  1670    84.6913    22571(150)          6789.9111         2551.3840                                                                
  1671    84.7413    16876(129)          4666.1426         2552.6589                                                                
  1672    84.7913    11565(107)          3573.4641         2553.9336                                                                
  1673    84.8413    7880(88)          3081.8882         2555.2085                                                                  
  1674    84.8913    5445(73)          2877.0757         2556.4834                                                                  
  1675    84.9413    3869(62)          2789.0520         2557.7581                                                                  
  1676    84.9913    3072(55)          2744.2292         2559.0330                                                                  
  1677    85.0413    2845(53)          2715.8665         2560.3079                                                                  
  1678    85.0913    2806(52)          2695.0981         2561.5825                                                                  
  1679    85.1413    2730(52)          2678.9941         2562.8574                                                                  
  1680    85.1913    2709(52)          2666.1628         2564.1321                                                                  
  1681    85.2413    2657(51)          2655.8118         2565.4070                                                                  
  1682    85.2913    2714(52)          2647.3970         2566.6819                                                                  
  1683    85.3413    2768(52)          2640.5181         2567.9565                                                                  
  1684    85.3913    2676(51)          2634.8704         2569.2314                                                                  
  1685    85.4413    2621(51)          2630.2234         2570.5061                                                                  
  1686    85.4913    2697(51)          2626.3960         2571.7810                                                                  
  1687    85.5413    2721(52)          2623.2473         2573.0559                                                                  
  1688    85.5913    2734(52)          2620.6658         2574.3306                                                                  
  1689    85.6413    2681(51)          2618.5608         2575.6055                                                                  
  1690    85.6913    2641(51)          2616.8606         2576.8801                                                                  
  1691    85.7413    2670(51)          2615.5054         2578.1550                                                                  
  1692    85.7913    2651(51)          2614.4468         2579.4299                                                                  
  1693    85.8413    2580(50)          2613.6453         2580.7046                                                                  
  1694    85.8913    2592(50)          2613.0669         2581.9795                                                                  
  1695    85.9413    2612(51)          2612.6841         2583.2542                                                                  
  1696    85.9913    2545(50)          2612.4731         2584.5291                                                                  
  1697    86.0413    2566(50)          2612.4146         2585.8040                                                                  
  1698    86.0913    2671(51)          2612.4915         2587.0786                                                                  
  1699    86.1413    2663(51)          2612.6899         2588.3535                                                                  
  1700    86.1913    2582(50)          2612.9971         2589.6282                                                                  
  1701    86.2413    2552(50)          2613.4033         2590.9031                                                                  
  1702    86.2913    2573(50)          2613.8994         2592.1780                                                                  
  1703    86.3413    2718(52)          2614.4778         2593.4526                                                                  
  1704    86.3913    2708(52)          2615.1323         2594.7275                                                                  
  1705    86.4413    2639(51)          2615.8572         2596.0022                                                                  
  1706    86.4913    2635(51)          2616.6482         2597.2771                                                                  
  1707    86.5413    2592(50)          2617.5012         2598.5520                                                                  
  1708    86.5913    2638(51)          2618.4131         2599.8267                                                                  
  1709    86.6413    2650(51)          2619.3816         2601.1016                                                                  
  1710    86.6913    2604(51)          2620.4048         2602.3762                                                                  
  1711    86.7413    2628(51)          2621.4812         2603.6511                                                                  
  1712    86.7913    2658(51)          2622.6104         2604.9260                                                                  
  1713    86.8413    2646(51)          2623.7917         2606.2007                                                                  
  1714    86.8913    2655(51)          2625.0259         2607.4756                                                                  
  1715    86.9413    2700(51)          2626.3135         2608.7502                                                                  
  1716    86.9913    2605(51)          2627.6565         2610.0251                                                                  
  1717    87.0413    2612(51)          2629.0569         2611.3000                                                                  
  1718    87.0913    2683(51)          2630.5171         2612.5747                                                                  
  1719    87.1413    2637(51)          2632.0415         2613.8496                                                                  
  1720    87.1913    2593(50)          2633.6343         2615.1243                                                                  
  1721    87.2413    2643(51)          2635.3015         2616.3992                                                                  
  1722    87.2913    2677(51)          2637.0498         2617.6741                                                                  
  1723    87.3413    2624(51)          2638.8877         2618.9487                                                                  
  1724    87.3913    2606(51)          2640.8254         2620.2236                                                                  
  1725    87.4413    2533(50)          2642.8748         2621.4983                                                                  
  1726    87.4913    2603(51)          2645.0515         2622.7732                                                                  
  1727    87.5413    2624(51)          2647.3733         2624.0481                                                                  
  1728    87.5913    2634(51)          2649.8616         2625.3228                                                                  
  1729    87.6413    2629(51)          2652.5444         2626.5977                                                                  
  1730    87.6913    2647(51)          2655.4543         2627.8723                                                                  
  1731    87.7413    2701(51)          2658.6333         2629.1472                                                                  
  1732    87.7913    2623(51)          2662.1333         2630.4221                                                                  
  1733    87.8413    2644(51)          2666.0190         2631.6968                                                                  
  1734    87.8913    2608(51)          2670.3755         2632.9717                                                                  
  1735    87.9413    2508(50)          2675.3093         2634.2463                                                                  
  1736    87.9913    2665(51)          2680.9641         2635.5212                                                                  
  1737    88.0413    2604(51)          2687.5278         2636.7961                                                                  
  1738    88.0913    2593(50)          2695.2610         2638.0708                                                                  
  1739    88.1413    2627(51)          2704.5671         2639.3457                                                                  
  1740    88.1913    2727(52)          2716.2141         2640.6204                                                                  
  1741    88.2413    2763(52)          2732.1572         2641.8953                                                                  
  1742    88.2913    2738(52)          2758.0916         2643.1702                                                                  
  1743    88.3413    2766(52)          2810.1348         2644.4448                                                                  
  1744    88.3913    2867(53)          2928.4233         2645.7197                                                                  
  1745    88.4413    3110(55)          3196.0291         2646.9944                                                                  
  1746    88.4913    3648(60)          3749.4204         2648.2693                                                                  
  1747    88.5413    4491(67)          4749.5234         2649.5442                                                                  
  1748    88.5913    5694(75)          6287.8213         2650.8188                                                                  
  1749    88.6413    7524(86)          8251.3730         2652.0938                                                                  
  1750    88.6913    9490(97)         10234.1533         2653.3684                                                                  
  1751    88.7413    11244(106)         11604.5215         2654.6433                                                                
  1752    88.7913    12383(111)         11786.8789         2655.9182                                                                
  1753    88.8413    13002(114)         10695.2109         2657.1929                                                                
  1754    88.8913    12718(112)          8812.5684         2658.4678                                                                
  1755    88.9413    11659(107)          6794.3994         2659.7424                                                                
  1756    88.9913    10068(100)          5121.1841         2661.0173                                                                
  1757    89.0413    8461(91)          3981.5479         2662.2922                                                                  
  1758    89.0913    6673(81)          3325.6167         2663.5669                                                                  
  1759    89.1413    5279(72)          2998.8899         2664.8418                                                                  
  1760    89.1913    4167(64)          2853.2246         2666.1165                                                                  
  1761    89.2413    3369(58)          2791.1409         2667.3914                                                                  
  1762    89.2913    3005(54)          2762.8701         2668.6663                                                                  
  1763    89.3413    2866(53)          2747.4814         2669.9409                                                                  
  1764    89.3913    2757(52)          2737.3687         2671.2158                                                                  
  1765    89.4413    2685(51)          2729.5554         2672.4905                                                                  
  1766    89.4913    2779(52)          2723.8584         2673.7654                                                                  
  1767    89.5413    2723(52)          2719.4180         2675.0403                                                                  
  1768    89.5913    2642(51)          2715.9456         2676.3149                                                                  
  1769    89.6413    2589(50)          2713.2341         2677.5898                                                                  
  1770    89.6913    2689(51)          2711.1321         2678.8645                                                                  
  1771    89.7413    2735(52)          2709.5217         2680.1394                                                                  
  1772    89.7913    2614(51)          2708.3140         2681.4143                                                                  
  1773    89.8413    2675(51)          2707.4380         2682.6890                                                                  
  1774    89.8913    2669(51)          2706.8384         2683.9639                                                                  
  1775    89.9413    2691(51)          2706.4705         2685.2385                                                                  
  1776    89.9913    2677(51)          2706.2986         2686.5134                                                                  
  1777    90.0413    2664(51)          2706.2939         2687.7883                                                                  
  1778    90.0913    2775(52)          2706.4324         2689.0630                                                                  
  1779    90.1413    2773(52)          2706.6946         2690.3379                                                                  
  1780    90.1913    2744(52)          2707.0640         2691.6125                                                                  
  1781    90.2413    2772(52)          2707.5271         2692.8875                                                                  
  1782    90.2913    2716(52)          2708.0728         2694.1624                                                                  
  1783    90.3413    2726(52)          2708.6909         2695.4370                                                                  
  1784    90.3913    2696(51)          2709.3738         2696.7119                                                                  
  1785    90.4413    2749(52)          2710.1143         2697.9866                                                                  
  1786    90.4913    2773(52)          2710.9065         2699.2615                                                                  
  1787    90.5413    2754(52)          2711.7454         2700.5364                                                                  
  1788    90.5913    2791(52)          2712.6267         2701.8110                                                                  
  1789    90.6413    2785(52)          2713.5469         2703.0859                                                                  
  1790    90.6913    2702(51)          2714.5022         2704.3606                                                                  
  1791    90.7413    2717(52)          2715.4910         2705.6355                                                                  
  1792    90.7913    2787(52)          2716.5100         2706.9104                                                                  
  1793    90.8413    2734(52)          2717.5579         2708.1851                                                                  
  1794    90.8913    2774(52)          2718.6328         2709.4600                                                                  
  1795    90.9413    2767(52)          2719.7334         2710.7346                                                                  
  1796    90.9913    2824(53)          2720.8591         2712.0095                                                                  
  1797    91.0413    2669(51)          2722.0088         2713.2844                                                                  
  1798    91.0913    2738(52)          2723.1819         2714.5591                                                                  
  1799    91.1413    2743(52)          2724.3782         2715.8340                                                                  
  1800    91.1913    2777(52)          2725.5979         2717.1089                                                                  
  1801    91.2413    2829(53)          2726.8408         2718.3835                                                                  
  1802    91.2913    2855(53)          2728.1079         2719.6584                                                                  
  1803    91.3413    2732(52)          2729.3994         2720.9331                                                                  
  1804    91.3913    2776(52)          2731.1270         2722.2080                                                                  
  1805    91.4413    2707(52)          2732.4753         2723.4829                                                                  
  1806    91.4913    2733(52)          2733.8523         2724.7576                                                                  
  1807    91.5413    2776(52)          2735.2605         2726.0325                                                                  
  1808    91.5913    2693(51)          2736.7024         2727.3071                                                                  
  1809    91.6413    2690(51)          2738.1812         2728.5820                                                                  
  1810    91.6913    2746(52)          2739.7012         2729.8569                                                                  
  1811    91.7413    2797(52)          2741.2666         2731.1318                                                                  
  1812    91.7913    2797(52)          2742.8835         2732.4065                                                                  
  1813    91.8413    2747(52)          2744.5593         2733.6814                                                                  
  1814    91.8913    2783(52)          2746.3020         2734.9561                                                                  
  1815    91.9413    2750(52)          2748.1228         2736.2310                                                                  
  1816    91.9913    2676(51)          2750.0344         2737.5059                                                                  
  1817    92.0413    2702(51)          2752.0527         2738.7805                                                                  
  1818    92.0913    2732(52)          2754.1985         2740.0554                                                                  
  1819    92.1413    2841(53)          2756.4966         2741.3301                                                                  
  1820    92.1913    2714(52)          2758.9797         2742.6050                                                                  
  1821    92.2413    2781(52)          2761.6897         2743.8799                                                                  
  1822    92.2913    2734(52)          2764.6812         2745.1548                                                                  
  1823    92.3413    2726(52)          2768.0249         2746.4294                                                                  
  1824    92.3913    2775(52)          2771.8206         2747.7043                                                                  
  1825    92.4413    2796(52)          2776.2109         2748.9790                                                                  
  1826    92.4913    2846(53)          2781.4482         2750.2539                                                                  
  1827    92.5413    2746(52)          2788.1099         2751.5288                                                                  
  1828    92.5913    2822(53)          2797.8135         2752.8035                                                                  
  1829    92.6413    2757(52)          2815.2073         2754.0784                                                                  
  1830    92.6913    2866(53)          2852.3064         2755.3530                                                                  
  1831    92.7413    3015(54)          2935.4609         2756.6279                                                                  
  1832    92.7913    3125(55)          3111.1843         2757.9028                                                                  
  1833    92.8413    3442(58)          3440.8599         2759.1775                                                                  
  1834    92.8913    3949(62)          3972.7124         2760.4524                                                                  
  1835    92.9413    4720(68)          4691.6035         2761.7271                                                                  
  1836    92.9913    5771(75)          5476.1621         2763.0020                                                                  
  1837    93.0413    6452(80)          6101.6011         2764.2769                                                                  
  1838    93.0913    7156(84)          6321.3789         2765.5515                                                                  
  1839    93.1413    7470(86)          6032.0830         2766.8264                                                                  
  1840    93.1913    7388(85)          5369.1953         2768.1011                                                                  
  1841    93.2413    6921(83)          4584.6699         2769.3760                                                                  
  1842    93.2913    6498(80)          3890.9902         2770.6509                                                                  
  1843    93.3413    5835(76)          3392.7544         2771.9255                                                                  
  1844    93.3913    5132(71)          3092.1064         2773.2004                                                                  
  1845    93.4413    4373(66)          2936.2615         2774.4751                                                                  
  1846    93.4913    3916(62)          2864.8049         2775.7500                                                                  
  1847    93.5413    3400(58)          2833.6387         2777.0249                                                                  
  1848    93.5913    3064(55)          2820.3801         2778.2996                                                                  
  1849    93.6413    2890(53)          2813.7935         2779.5745                                                                  
  1850    93.6913    2811(53)          2809.8889         2780.8491                                                                  
  1851    93.7413    2831(53)          2807.2817         2782.1240                                                                  
  1852    93.7913    2854(53)          2805.4702         2783.3989                                                                  
  1853    93.8413    2718(52)          2804.2268         2784.6736                                                                  
  1854    93.8913    2738(52)          2803.4158         2785.9485                                                                  
  1855    93.9413    2879(53)          2802.9438         2787.2231                                                                  
  1856    93.9913    2788(52)          2802.7419         2788.4980                                                                  
  1857    94.0413    2747(52)          2802.7573         2789.7729                                                                  
  1858    94.0913    2791(52)          2802.9497         2791.0476                                                                  
  1859    94.1413    2763(52)          2803.2878         2792.3225                                                                  
  1860    94.1913    2860(53)          2803.7468         2793.5972                                                                  
  1861    94.2413    2854(53)          2804.3069         2794.8721                                                                  
  1862    94.2913    2797(52)          2804.9521         2796.1470                                                                  
  1863    94.3413    2760(52)          2805.6697         2797.4216                                                                  
  1864    94.3913    2802(52)          2806.4492         2798.6965                                                                  
  1865    94.4413    2813(53)          2807.2815         2799.9712                                                                  
  1866    94.4913    2876(53)          2808.1602         2801.2461                                                                  
  1867    94.5413    2817(53)          2809.0786         2802.5210                                                                  
  1868    94.5913    2848(53)          2810.0317         2803.7957                                                                  
  1869    94.6413    2887(53)          2811.0154         2805.0706                                                                  
  1870    94.6913    2839(53)          2812.0261         2806.3452                                                                  
  1871    94.7413    2824(53)          2813.0608         2807.6201                                                                  
  1872    94.7913    2751(52)          2814.1167         2808.8950                                                                  
  1873    94.8413    2819(53)          2815.1914         2810.1697                                                                  
  1874    94.8913    2735(52)          2816.2832         2811.4446                                                                  
  1875    94.9413    2786(52)          2817.3899         2812.7192                                                                  
  1876    94.9913    2747(52)          2818.5105         2813.9941                                                                  
  1877    95.0413    2838(53)          2819.6436         2815.2690                                                                  
  1878    95.0913    2839(53)          2820.7878         2816.5437                                                                  
  1879    95.1413    2747(52)          2821.9424         2817.8186                                                                  
  1880    95.1913    2779(52)          2823.1060         2819.0933                                                                  
  1881    95.2413    2723(52)          2824.2783         2820.3682                                                                  
  1882    95.2913    2794(52)          2825.4587         2821.6431                                                                  
  1883    95.3413    2893(53)          2826.6458         2822.9177                                                                  
  1884    95.3913    2803(52)          2827.8401         2824.1926                                                                  
  1885    95.4413    2809(53)          2829.0400         2825.4673                                                                  
  1886    95.4913    2731(52)          2830.2458         2826.7422                                                                  
  1887    95.5413    2830(53)          2831.4573         2828.0171                                                                  
  1888    95.5913    2884(53)          2832.6731         2829.2917                                                                  
  1889    95.6413    2859(53)          2833.8940         2830.5667                                                                  
  1890    95.6913    2822(53)          2835.1189         2831.8413                                                                  
  1891    95.7413    2828(53)          2836.6213         2833.1162                                                                  
  1892    95.7913    2777(52)          2837.8569         2834.3911                                                                  
  1893    95.8413    2810(53)          2839.0959         2835.6658                                                                  
  1894    95.8913    2832(53)          2840.3386         2836.9407                                                                  
  1895    95.9413    2850(53)          2841.5845         2838.2153                                                                  
  1896    95.9913    2843(53)          2842.8337         2839.4902                                                                  
  1897    96.0413    2857(53)          2844.0857         2840.7651                                                                  
  1898    96.0913    2909(53)          2845.3406         2842.0398                                                                  
  1899    96.1413    2823(53)          2846.5981         2843.3147                                                                  
  1900    96.1913    2804(52)          2847.8584         2844.5894                                                                  
  1901    96.2413    2829(53)          2849.1211         2845.8643                                                                  
  1902    96.2913    2906(53)          2850.3865         2847.1392                                                                  
  1903    96.3413    2766(52)          2851.6541         2848.4138                                                                  
  1904    96.3913    2920(54)          2852.9241         2849.6887                                                                  
  1905    96.4413    2889(53)          2854.1960         2850.9634                                                                  
  1906    96.4913    2897(53)          2855.4707         2852.2383                                                                  
  1907    96.5413    2807(52)          2856.7473         2853.5132                                                                  
  1908    96.5913    2801(52)          2857.8267         2854.5886                                                                  
  1909    96.6413    2856(53)          2859.1956         2855.6262                                                                  
  1910    96.6913    2847(53)          2860.2446         2856.6638                                                                  
  1911    96.7413    2933(54)          2861.2959         2857.7014                                                                  
  1912    96.7913    2865(53)          2862.3494         2858.7390                                                                  
  1913    96.8413    2969(54)          2863.4045         2859.7764                                                                  
  1914    96.8913    2896(53)          2864.4624         2860.8142                                                                  
  1915    96.9413    2854(53)          2865.5217         2861.8516                                                                  
  1916    96.9913    2955(54)          2866.5835         2862.8892                                                                  
  1917    97.0413    2828(53)          2867.6475         2863.9268                                                                  
  1918    97.0913    2990(54)          2868.7136         2864.9644                                                                  
  1919    97.1413    2876(53)          2869.7817         2866.0020                                                                  
  1920    97.1913    2841(53)          2870.8523         2867.0396                                                                  
  1921    97.2413    2986(54)          2871.9248         2868.0771                                                                  
  1922    97.2913    2928(54)          2873.0000         2869.1147                                                                  
  1923    97.3413    2962(54)          2874.0771         2870.1523                                                                  
  1924    97.3913    2866(53)          2875.1570         2871.1899                                                                  
  1925    97.4413    2765(52)          2876.2388         2872.2273                                                                  
  1926    97.4913    2820(53)          2877.3235         2873.2649                                                                  
  1927    97.5413    2872(53)          2878.4109         2874.3027                                                                  
  1928    97.5913    2912(53)          2879.5005         2875.3401                                                                  
  1929    97.6413    2937(54)          2880.5930         2876.3777                                                                  
  1930    97.6913    2972(54)          2881.6885         2877.4153                                                                  
  1931    97.7413    2918(54)          2882.7869         2878.4529                                                                  
  1932    97.7913    2944(54)          2883.8882         2879.4905                                                                  
  1933    97.8413    2946(54)          2884.9927         2880.5281                                                                  
  1934    97.8913    2924(54)          2886.1003         2881.5657                                                                  
  1935    97.9413    2900(53)          2887.2112         2882.6030                                                                  
  1936    97.9913    2866(53)          2888.3262         2883.6409                                                                  
  1937    98.0413    2822(53)          2889.4446         2884.6785                                                                  
  1938    98.0913    2902(53)          2890.5664         2885.7158                                                                  
  1939    98.1413    2890(53)          2891.4031         2886.7534                                                                  
  1940    98.1913    2840(53)          2892.5366         2887.7910                                                                  
  1941    98.2413    2840(53)          2893.6743         2888.8286                                                                  
  1942    98.2913    2962(54)          2894.8169         2889.8662                                                                  
  1943    98.3413    2904(53)          2895.9641         2890.9038                                                                  
  1944    98.3913    2795(52)          2897.1165         2891.9414                                                                  
  1945    98.4413    2895(53)          2898.2739         2892.9788                                                                  
  1946    98.4913    2939(54)          2899.4375         2894.0166                                                                  
  1947    98.5413    2953(54)          2900.6069         2895.0542                                                                  
  1948    98.5913    3015(54)          2901.7822         2896.0916                                                                  
  1949    98.6413    2987(54)          2902.9646         2897.1292                                                                  
  1950    98.6913    2973(54)          2904.1541         2898.1667                                                                  
  1951    98.7413    2844(53)          2905.3511         2899.2043                                                                  
  1952    98.7913    3002(54)          2906.5562         2900.2419                                                                  
  1953    98.8413    2928(54)          2907.7698         2901.2795                                                                  
  1954    98.8913    2857(53)          2908.9924         2902.3171                                                                  
  1955    98.9413    2896(53)          2910.2249         2903.3547                                                                  
  1956    98.9913    2957(54)          2911.4678         2904.3923                                                                  
  1957    99.0413    2979(54)          2912.7217         2905.4299                                                                  
  1958    99.0913    2980(54)          2913.9871         2906.4673                                                                  
  1959    99.1413    2880(53)          2915.2659         2907.5051                                                                  
  1960    99.1913    2837(53)          2916.5579         2908.5425                                                                  
  1961    99.2413    2952(54)          2917.8650         2909.5801                                                                  
  1962    99.2913    2940(54)          2919.1880         2910.6177                                                                  
  1963    99.3413    3028(55)          2920.5281         2911.6553                                                                  
  1964    99.3913    3071(55)          2921.8870         2912.6929                                                                  
  1965    99.4413    2920(54)          2923.2656         2913.7305                                                                  
  1966    99.4913    2969(54)          2924.6665         2914.7681                                                                  
  1967    99.5413    2941(54)          2926.0911         2915.8057                                                                  
  1968    99.5913    2969(54)          2927.5413         2916.8433                                                                  
  1969    99.6413    2995(54)          2929.0200         2917.8809                                                                  
  1970    99.6913    2872(53)          2930.5291         2918.9182                                                                  
  1971    99.7413    2966(54)          2932.0725         2919.9558                                                                  
  1972    99.7913    3013(54)          2933.6533         2920.9937                                                                  
  1973    99.8413    3019(54)          2935.2744         2922.0310                                                                  
  1974    99.8913    2989(54)          2936.9412         2923.0686                                                                  
  1975    99.9413    2909(53)          2938.6577         2924.1062                                                                  
  1976    99.9913    2905(53)          2940.4299         2925.1438                                                                  
  1977   100.0413    2950(54)          2942.2639         2926.1814                                                                  
  1978   100.0913    2881(53)          2944.2229         2927.2190                                                                  
  1979   100.1413    3004(54)          2946.2036         2928.2566                                                                  
  1980   100.1913    2943(54)          2948.2705         2929.2939                                                                  
  1981   100.2413    2868(53)          2950.4355         2930.3315                                                                  
  1982   100.2913    2870(53)          2952.7114         2931.3694                                                                  
  1983   100.3413    2863(53)          2955.1125         2932.4067                                                                  
  1984   100.3913    2903(53)          2957.6572         2933.4443                                                                  
  1985   100.4413    2910(53)          2960.3657         2934.4819                                                                  
  1986   100.4913    2942(54)          2963.2639         2935.5195                                                                  
  1987   100.5413    2960(54)          2966.3806         2936.5571                                                                  
  1988   100.5913    2970(54)          2969.7517         2937.5947                                                                  
  1989   100.6413    2930(54)          2973.4209         2938.6323                                                                  
  1990   100.6913    2922(54)          2977.4719         2939.6697                                                                  
  1991   100.7413    2938(54)          2981.9084         2940.7075                                                                  
  1992   100.7913    2957(54)          2986.8416         2941.7451                                                                  
  1993   100.8413    2918(54)          2992.3716         2942.7825                                                                  
  1994   100.8913    3010(54)          2998.6287         2943.8201                                                                  
  1995   100.9413    2987(54)          3005.7747         2944.8577                                                                  
  1996   100.9913    2970(54)          3014.0256         2945.8953                                                                  
  1997   101.0413    2947(54)          3023.6699         2946.9329                                                                  
  1998   101.0913    3038(55)          3035.1326         2947.9705                                                                  
  1999   101.1413    2951(54)          3049.1687         2949.0081                                                                  
  2000   101.1913    3129(55)          3067.4297         2950.0454                                                                  
  2001   101.2413    3050(55)          3094.1313         2951.0833                                                                  
  2002   101.2913    3037(55)          3140.0981         2952.1208                                                                  
  2003   101.3413    3126(55)          3231.0298         2953.1582                                                                  
  2004   101.3913    3310(57)          3420.5996         2954.1960                                                                  
  2005   101.4413    3765(61)          3803.5664         2955.2334                                                                  
  2006   101.4913    4407(66)          4515.8901         2956.2710                                                                  
  2007   101.5413    5616(74)          5700.5068         2957.3086                                                                  
  2008   101.5913    7495(86)          7428.6519         2958.3462                                                                  
  2009   101.6413    9768(98)          9599.3535         2959.3838                                                                  
  2010   101.6913    12728(112)         11870.8418         2960.4214                                                                
  2011   101.7413    15455(124)         13692.0742         2961.4590                                                                
  2012   101.7913    17384(131)         14469.4746         2962.4966                                                                
  2013   101.8413    18336(135)         13899.1309         2963.5339                                                                
  2014   101.8913    18403(135)         12208.0820         2964.5718                                                                
  2015   101.9413    17454(132)          9969.2939         2965.6091                                                                
  2016   101.9913    16069(126)          7755.8691         2966.6467                                                                
  2017   102.0413    14462(120)          5947.5381         2967.6846                                                                
  2018   102.0913    12566(112)          4681.1621         2968.7219                                                                
  2019   102.1413    10369(101)          3905.4182         2969.7595                                                                
  2020   102.1913    8208(90)          3482.5942         2970.7971                                                                  
  2021   102.2413    6195(78)          3272.2190         2971.8347                                                                  
  2022   102.2913    4910(70)          3172.4377         2972.8723                                                                  
  2023   102.3413    4151(64)          3123.8623         2973.9099                                                                  
  2024   102.3913    3616(60)          3097.3262         2974.9475                                                                  
  2025   102.4413    3358(57)          3080.3464         2975.9849                                                                  
  2026   102.4913    3282(57)          3067.9026         2977.0225                                                                  
  2027   102.5413    3075(55)          3058.3315         2978.0603                                                                  
  2028   102.5913    3114(55)          3050.6738         2979.0977                                                                  
  2029   102.6413    3035(55)          3044.4673         2980.1353                                                                  
  2030   102.6913    3097(55)          3039.4097         2981.1729                                                                  
  2031   102.7413    3202(56)          3035.2754         2982.2104                                                                  
  2032   102.7913    3141(56)          3031.8953         2983.2480                                                                  
  2033   102.8413    3078(55)          3029.1372         2984.2856                                                                  
  2034   102.8913    3087(55)          3026.8955         2985.3232                                                                  
  2035   102.9413    3066(55)          3025.0874         2986.3606                                                                  
  2036   102.9913    2996(54)          3023.6462         2987.3984                                                                  
  2037   103.0413    3034(55)          3022.5176         2988.4360                                                                  
  2038   103.0913    3039(55)          3021.6572         2989.4734                                                                  
  2039   103.1413    3028(55)          3021.0293         2990.5110                                                                  
  2040   103.1913    3082(55)          3020.6038         2991.5486                                                                  
  2041   103.2413    3110(55)          3020.3555         2992.5862                                                                  
  2042   103.2913    3146(56)          3020.2637         2993.6238                                                                  
  2043   103.3413    3053(55)          3020.3115         2994.6614                                                                  
  2044   103.3913    3013(54)          3020.4836         2995.6990                                                                  
  2045   103.4413    3052(55)          3020.7683         2996.7363                                                                  
  2046   103.4913    3010(54)          3021.1555         2997.7742                                                                  
  2047   103.5413    2941(54)          3021.6360         2998.8118                                                                  
  2048   103.5913    3059(55)          3022.2024         2999.8491                                                                  
  2049   103.6413    3016(54)          3022.8494         3000.8867                                                                  
  2050   103.6913    3033(55)          3023.5718         3001.9243                                                                  
  2051   103.7413    2992(54)          3024.3652         3002.9619                                                                  
  2052   103.7913    3090(55)          3025.2271         3003.9995                                                                  
  2053   103.8413    2970(54)          3026.1543         3005.0371                                                                  
  2054   103.8913    2959(54)          3027.1458         3006.0747                                                                  
  2055   103.9413    3023(54)          3028.2000         3007.1123                                                                  
  2056   103.9913    3065(55)          3029.3167         3008.1499                                                                  
  2057   104.0413    3112(55)          3030.4961         3009.1875                                                                  
  2058   104.0913    3193(56)          3031.7388         3010.2249                                                                  
  2059   104.1413    3076(55)          3033.0469         3011.2627                                                                  
  2060   104.1913    3068(55)          3034.4216         3012.3000                                                                  
  2061   104.2413    3113(55)          3035.8665         3013.3376                                                                  
  2062   104.2913    3166(56)          3037.3848         3014.3752                                                                  
  2063   104.3413    3116(55)          3038.9810         3015.4128                                                                  
  2064   104.3913    3205(56)          3040.6602         3016.4504                                                                  
  2065   104.4413    3147(56)          3042.4290         3017.4880                                                                  
  2066   104.4913    3158(56)          3044.2947         3018.5256                                                                  
  2067   104.5413    3170(56)          3046.2661         3019.5632                                                                  
  2068   104.5913    3156(56)          3048.3538         3020.6008                                                                  
  2069   104.6413    3091(55)          3050.5701         3021.6384                                                                  
  2070   104.6913    3184(56)          3052.9287         3022.6758                                                                  
  2071   104.7413    3122(55)          3055.4478         3023.7134                                                                  
  2072   104.7913    3145(56)          3058.1467         3024.7512                                                                  
  2073   104.8413    3140(56)          3061.0483         3025.7886                                                                  
  2074   104.8913    3112(55)          3064.1824         3026.8262                                                                  
  2075   104.9413    3141(56)          3067.5815         3027.8638                                                                  
  2076   104.9913    3219(56)          3071.2866         3028.9014                                                                  
  2077   105.0413    3172(56)          3075.3467         3029.9390                                                                  
  2078   105.0913    3114(55)          3079.8206         3030.9766                                                                  
  2079   105.1413    3061(55)          3085.0959         3032.0142                                                                  
  2080   105.1913    3129(55)          3090.6357         3033.0515                                                                  
  2081   105.2413    3174(56)          3096.8647         3034.0894                                                                  
  2082   105.2913    3088(55)          3103.9216         3035.1270                                                                  
  2083   105.3413    3088(55)          3111.9832         3036.1643                                                                  
  2084   105.3913    3225(56)          3121.2795         3037.2019                                                                  
  2085   105.4413    3119(55)          3132.1055         3038.2395                                                                  
  2086   105.4913    3152(56)          3144.8633         3039.2771                                                                  
  2087   105.5413    3141(56)          3160.1265         3040.3147                                                                  
  2088   105.5913    3129(55)          3178.8445         3041.3523                                                                  
  2089   105.6413    3230(56)          3202.9636         3042.3899                                                                  
  2090   105.6913    3236(56)          3237.1714         3043.4272                                                                  
  2091   105.7413    3331(57)          3293.4619         3044.4651                                                                  
  2092   105.7913    3499(59)          3400.9507         3045.5027                                                                  
  2093   105.8413    3860(62)          3622.8662         3046.5400                                                                  
  2094   105.8913    4282(65)          4077.0728         3047.5776                                                                  
  2095   105.9413    5165(71)          4942.7251         3048.6152                                                                  
  2096   105.9913    6605(81)          6424.1953         3049.6528                                                                  
  2097   106.0413    8730(93)          8645.4990         3050.6904                                                                  
  2098   106.0913    11796(108)         11498.1602         3051.7280                                                                
  2099   106.1413    15045(122)         14527.4365         3052.7656                                                                
  2100   106.1913    18175(134)         16951.1250         3053.8032                                                                
  2101   106.2413    20139(141)         17908.4102         3054.8408                                                                
  2102   106.2913    21365(146)         16985.3652         3055.8784                                                                
  2103   106.3413    20949(144)         14582.7256         3056.9158                                                                
  2104   106.3913    20139(141)         11558.6328         3057.9536                                                                
  2105   106.4413    19029(137)          8699.7080         3058.9910                                                                
  2106   106.4913    17286(131)          6467.2441         3060.0286                                                                
  2107   106.5413    15292(123)          4975.1904         3061.0662                                                                
  2108   106.5913    12828(113)          4102.2964         3062.1038                                                                
  2109   106.6413    10363(101)          3644.4812         3063.1414                                                                
  2110   106.6913    8226(90)          3421.6431         3064.1790                                                                  
  2111   106.7413    6280(79)          3314.7991         3065.2166                                                                  
  2112   106.7913    4977(70)          3259.9202         3066.2542                                                                  
  2113   106.8413    4180(64)          3227.4509         3067.2915                                                                  
  2114   106.8913    3629(60)          3205.1992         3068.3293                                                                  
  2115   106.9413    3521(59)          3188.3982         3069.3667                                                                  
  2116   106.9913    3464(58)          3175.0730         3070.4043                                                                  
  2117   107.0413    3314(57)          3164.2639         3071.4419                                                                  
  2118   107.0913    3203(56)          3155.3931         3072.4795                                                                  
  2119   107.1413    3169(56)          3148.0552         3073.5171                                                                  
  2120   107.1913    3243(56)          3141.9541         3074.5547                                                                  
  2121   107.2413    3194(56)          3136.8584         3075.5923                                                                  
  2122   107.2913    3282(57)          3132.5906         3076.6299                                                                  
  2123   107.3413    3143(56)          3129.0105         3077.6675                                                                  
  2124   107.3913    3129(55)          3126.0044         3078.7051                                                                  
  2125   107.4413    3146(56)          3123.4829         3079.7424                                                                  
  2126   107.4913    3188(56)          3121.3723         3080.7800                                                                  
  2127   107.5413    3216(56)          3119.6133         3081.8179                                                                  
  2128   107.5913    3245(56)          3118.1560         3082.8552                                                                  
  2129   107.6413    3174(56)          3116.9595         3083.8928                                                                  
  2130   107.6913    3200(56)          3115.9900         3084.9304                                                                  
  2131   107.7413    3189(56)          3115.2180         3085.9680                                                                  
  2132   107.7913    3128(55)          3114.6196         3087.0056                                                                  
  2133   107.8413    3232(56)          3114.1748         3088.0432                                                                  
  2134   107.8913    3236(56)          3113.8652         3089.0808                                                                  
  2135   107.9413    3232(56)          3113.6760         3090.1182                                                                  
  2136   107.9913    3215(56)          3113.5945         3091.1560                                                                  
  2137   108.0413    3055(55)          3113.6094         3092.1936                                                                  
  2138   108.0913    3119(55)          3113.7109         3093.2310                                                                  
  2139   108.1413    3130(55)          3113.8906         3094.2686                                                                  
  2140   108.1913    3204(56)          3114.1418         3095.3062                                                                  
  2141   108.2413    3147(56)          3114.4573         3096.3438                                                                  
  2142   108.2913    3177(56)          3114.8320         3097.3813                                                                  
  2143   108.3413    3170(56)          3115.2610         3098.4189                                                                  
  2144   108.3913    3088(55)          3115.7397         3099.4565                                                                  
  2145   108.4413    3186(56)          3116.2649         3100.4941                                                                  
  2146   108.4913    3256(57)          3116.8330         3101.5317                                                                  
  2147   108.5413    3182(56)          3117.4414         3102.5693                                                                  
  2148   108.5913    3119(55)          3118.0872         3103.6067                                                                  
  2149   108.6413    3141(56)          3118.7693         3104.6445                                                                  
  2150   108.6913    3213(56)          3119.4849         3105.6819                                                                  
  2151   108.7413    3152(56)          3120.2329         3106.7195                                                                  
  2152   108.7913    3084(55)          3121.0125         3107.7571                                                                  
  2153   108.8413    3181(56)          3121.8223         3108.7947                                                                  
  2154   108.8913    3196(56)          3124.3689         3109.8323                                                                  
  2155   108.9413    3128(55)          3125.2527         3110.8699                                                                  
  2156   108.9913    3154(56)          3126.1663         3111.9075                                                                  
  2157   109.0413    3220(56)          3127.1094         3112.9451                                                                  
  2158   109.0913    3259(57)          3128.0825         3113.9824                                                                  
  2159   109.1413    3198(56)          3129.0869         3115.0203                                                                  
  2160   109.1913    3222(56)          3130.1230         3116.0576                                                                  
  2161   109.2413    3210(56)          3131.1934         3117.0952                                                                  
  2162   109.2913    3133(55)          3132.2993         3118.1328                                                                  
  2163   109.3413    3358(57)          3133.4438         3119.1704                                                                  
  2164   109.3913    3158(56)          3134.6301         3120.2080                                                                  
  2165   109.4413    3180(56)          3135.8618         3121.2456                                                                  
  2166   109.4913    3209(56)          3137.1440         3122.2832                                                                  
  2167   109.5413    3205(56)          3138.4829         3123.3208                                                                  
  2168   109.5913    3223(56)          3139.8857         3124.3584                                                                  
  2169   109.6413    3248(56)          3141.3618         3125.3960                                                                  
  2170   109.6913    3205(56)          3142.9216         3126.4333                                                                  
  2171   109.7413    3121(55)          3144.5798         3127.4709                                                                  
  2172   109.7913    3197(56)          3146.3542         3128.5088                                                                  
  2173   109.8413    3299(57)          3148.2654         3129.5461                                                                  
  2174   109.8913    3231(56)          3150.3425         3130.5837                                                                  
  2175   109.9413    3174(56)          3152.6206         3131.6213                                                                  
  2176   109.9913    3184(56)          3155.1475         3132.6589                                                                  
  2177   110.0413    3229(56)          3157.9873         3133.6965                                                                  
  2178   110.0913    3217(56)          3161.2368         3134.7341                                                                  
  2179   110.1413    3331(57)          3165.0706         3135.7717                                                                  
  2180   110.1913    3283(57)          3169.8679         3136.8091                                                                  
  2181   110.2413    3301(57)          3176.5632         3137.8467                                                                  
  2182   110.2913    3256(57)          3187.4453         3138.8845                                                                  
  2183   110.3413    3387(58)          3207.6973         3139.9219                                                                  
  2184   110.3913    3473(58)          3247.6902         3140.9595                                                                  
  2185   110.4413    3597(59)          3325.0120         3141.9971                                                                  
  2186   110.4913    3807(61)          3463.8994         3143.0347                                                                  
  2187   110.5413    4270(65)          3688.5071         3144.0723                                                                  
  2188   110.5913    4680(68)          4008.8074         3145.1099                                                                  
  2189   110.6413    5272(72)          4403.5513         3146.1475                                                                  
  2190   110.6913    5961(77)          4809.2861         3147.1851                                                                  
  2191   110.7413    6672(81)          5126.3652         3148.2227                                                                  
  2192   110.7913    7164(84)          5249.3521         3149.2603                                                                  
  2193   110.8413    7469(86)          5129.3623         3150.2976                                                                  
  2194   110.8913    7536(86)          4814.9194         3151.3354                                                                  
  2195   110.9413    7232(85)          4411.3735         3152.3728                                                                  
  2196   110.9913    6892(83)          4018.4775         3153.4104                                                                  
  2197   111.0413    6696(81)          3699.8159         3154.4480                                                                  
  2198   111.0913    6440(80)          3476.9187         3155.4856                                                                  
  2199   111.1413    5887(76)          3339.7808         3156.5232                                                                  
  2200   111.1913    5406(73)          3264.3132         3157.5605                                                                  
  2201   111.2413    4809(69)          3226.2603         3158.5984                                                                  
  2202   111.2913    4392(66)          3208.0002         3159.6360                                                                  
  2203   111.3413    3891(62)          3199.1428         3160.6733                                                                  
  2204   111.3913    3745(61)          3194.4829         3161.7112                                                                  
  2205   111.4413    3435(58)          3191.7249         3162.7485                                                                  
  2206   111.4913    3368(58)          3189.9321         3163.7861                                                                  
  2207   111.5413    3367(58)          3188.7227         3164.8237                                                                  
  2208   111.5913    3348(57)          3187.9229         3165.8613                                                                  
  2209   111.6413    3440(58)          3187.4341         3166.8989                                                                  
  2210   111.6913    3300(57)          3187.1926         3167.9365                                                                  
  2211   111.7413    3389(58)          3187.1504         3168.9741                                                                  
  2212   111.7913    3433(58)          3187.2720         3170.0117                                                                  
  2213   111.8413    3347(57)          3187.5291         3171.0493                                                                  
  2214   111.8913    3342(57)          3187.8992         3172.0869                                                                  
  2215   111.9413    3297(57)          3188.3650         3173.1243                                                                  
  2216   111.9913    3271(57)          3188.9124         3174.1619                                                                  
  2217   112.0413    3364(58)          3189.5303         3175.1997                                                                  
  2218   112.0913    3328(57)          3190.2083         3176.2371                                                                  
  2219   112.1413    3343(57)          3190.9395         3177.2747                                                                  
  2220   112.1913    3220(56)          3191.7178         3178.3123                                                                  
  2221   112.2413    3234(56)          3192.1304         3179.3499                                                                  
  2222   112.2913    3227(56)          3192.9912         3180.3875                                                                  
  2223   112.3413    3283(57)          3193.8857         3181.4250                                                                  
  2224   112.3913    3286(57)          3194.8108         3182.4626                                                                  
  2225   112.4413    3192(56)          3195.7637         3183.5000                                                                  
  2226   112.4913    3364(58)          3196.7432         3184.5376                                                                  
  2227   112.5413    3228(56)          3197.7471         3185.5754                                                                  
  2228   112.5913    3157(56)          3198.7737         3186.6128                                                                  
  2229   112.6413    3240(56)          3199.8225         3187.6504                                                                  
  2230   112.6913    3348(57)          3200.8923         3188.6880                                                                  
  2231   112.7413    3354(57)          3201.9827         3189.7256                                                                  
  2232   112.7913    3293(57)          3203.0933         3190.7632                                                                  
  2233   112.8413    3221(56)          3204.2234         3191.8008                                                                  
  2234   112.8913    3166(56)          3205.3735         3192.8384                                                                  
  2235   112.9413    3190(56)          3206.5430         3193.8757                                                                  
  2236   112.9913    3267(57)          3207.7332         3194.9136                                                                  
  2237   113.0413    3251(57)          3208.9436         3195.9512                                                                  
  2238   113.0913    3152(56)          3210.1750         3196.9885                                                                  
  2239   113.1413    3204(56)          3211.4285         3198.0261                                                                  
  2240   113.1913    3247(56)          3212.7046         3199.0637                                                                  
  2241   113.2413    3273(57)          3214.0046         3200.1013                                                                  
  2242   113.2913    3221(56)          3215.3298         3201.1389                                                                  
  2243   113.3413    3136(56)          3216.6819         3202.1765                                                                  
  2244   113.3913    3230(56)          3218.0627         3203.2141                                                                  
  2245   113.4413    3195(56)          3220.0803         3204.2515                                                                  
  2246   113.4913    3305(57)          3221.5300         3205.2893                                                                  
  2247   113.5413    3332(57)          3223.0156         3206.3269                                                                  
  2248   113.5913    3210(56)          3224.5398         3207.3643                                                                  
  2249   113.6413    3358(57)          3226.1069         3208.4019                                                                  
  2250   113.6913    3217(56)          3227.7207         3209.4395                                                                  
  2251   113.7413    3223(56)          3229.3862         3210.4771                                                                  
  2252   113.7913    3121(55)          3231.1091         3211.5146                                                                  
  2253   113.8413    3290(57)          3232.8953         3212.5522                                                                  
  2254   113.8913    3335(57)          3234.7524         3213.5898                                                                  
  2255   113.9413    3312(57)          3236.6890         3214.6274                                                                  
  2256   113.9913    3240(56)          3238.7151         3215.6650                                                                  
  2257   114.0413    3314(57)          3240.8430         3216.7026                                                                  
  2258   114.0913    3277(57)          3243.0857         3217.7402                                                                  
  2259   114.1413    3284(57)          3245.4607         3218.7778                                                                  
  2260   114.1913    3254(57)          3247.9863         3219.8152                                                                  
  2261   114.2413    3215(56)          3250.6877         3220.8528                                                                  
  2262   114.2913    3309(57)          3253.5925         3221.8906                                                                  
  2263   114.3413    3291(57)          3256.7346         3222.9280                                                                  
  2264   114.3913    3235(56)          3260.1570         3223.9656                                                                  
  2265   114.4413    3233(56)          3263.9111         3225.0032                                                                  
  2266   114.4913    3385(58)          3268.0625         3226.0408                                                                  
  2267   114.5413    3313(57)          3272.6917         3227.0784                                                                  
  2268   114.5913    3213(56)          3277.9014         3228.1160                                                                  
  2269   114.6413    3263(57)          3283.8252         3229.1536                                                                  
  2270   114.6913    3347(57)          3290.6345         3230.1909                                                                  
  2271   114.7413    3295(57)          3298.5662         3231.2285                                                                  
  2272   114.7913    3312(57)          3307.9631         3232.2664                                                                  
  2273   114.8413    3344(57)          3319.4167         3233.3037                                                                  
  2274   114.8913    3355(57)          3334.1929         3234.3413                                                                  
  2275   114.9413    3358(57)          3355.3704         3235.3789                                                                  
  2276   114.9913    3428(58)          3390.6111         3236.4165                                                                  
  2277   115.0413    3486(59)          3457.5120         3237.4541                                                                  
  2278   115.0913    3712(60)          3591.5503         3238.4917                                                                  
  2279   115.1413    4107(64)          3853.1777         3239.5293                                                                  
  2280   115.1913    4640(68)          4324.6206         3240.5667                                                                  
  2281   115.2413    5511(74)          5085.5488         3241.6045                                                                  
  2282   115.2913    6476(80)          6162.6230         3242.6421                                                                  
  2283   115.3413    7930(89)          7471.0547         3243.6794                                                                  
  2284   115.3913    9020(94)          8782.7148         3244.7170                                                                  
  2285   115.4413    10427(102)          9749.3848         3245.7546                                                                
  2286   115.4913    11053(105)         10024.4756         3246.7922                                                                
  2287   115.5413    10920(104)          9491.4990         3247.8298                                                                
  2288   115.5913    10734(103)          8369.5898         3248.8674                                                                
  2289   115.6413    10133(100)          7027.2910         3249.9050                                                                
  2290   115.6913    9616(98)          5780.4658         3250.9424                                                                  
  2291   115.7413    9128(95)          4808.5605         3251.9802                                                                  
  2292   115.7913    8480(92)          4153.5391         3253.0178                                                                  
  2293   115.8413    7804(88)          3764.4036         3254.0552                                                                  
  2294   115.8913    7029(83)          3555.8276         3255.0928                                                                  
  2295   115.9413    6086(78)          3452.0723         3256.1304                                                                  
  2296   115.9913    5193(72)          3401.0925         3257.1680                                                                  
  2297   116.0413    4547(67)          3374.3408         3258.2056                                                                  
  2298   116.0913    4071(63)          3358.3240         3259.2432                                                                  
  2299   116.1413    3746(61)          3347.3579         3260.2808                                                                  
  2300   116.1913    3505(59)          3339.1763         3261.3184                                                                  
  2301   116.2413    3464(58)          3332.8167         3262.3560                                                                  
  2302   116.2913    3459(58)          3327.7976         3263.3936                                                                  
  2303   116.3413    3462(58)          3323.8210         3264.4309                                                                  
  2304   116.3913    3461(58)          3320.6770         3265.4688                                                                  
  2305   116.4413    3404(58)          3318.2080         3266.5061                                                                  
  2306   116.4913    3354(57)          3316.2932         3267.5437                                                                  
  2307   116.5413    3443(58)          3314.8389         3268.5815                                                                  
  2308   116.5913    3350(57)          3313.7700         3269.6189                                                                  
  2309   116.6413    3444(58)          3313.0273         3270.6565                                                                  
  2310   116.6913    3387(58)          3312.5642         3271.6941                                                                  
  2311   116.7413    3431(58)          3312.3413         3272.7317                                                                  
  2312   116.7913    3413(58)          3312.0569         3273.7693                                                                  
  2313   116.8413    3391(58)          3312.2295         3274.8066                                                                  
  2314   116.8913    3455(58)          3312.5654         3275.8445                                                                  
  2315   116.9413    3408(58)          3313.0461         3276.8818                                                                  
  2316   116.9913    3399(58)          3313.6587         3277.9194                                                                  
  2317   117.0413    3497(59)          3314.3906         3278.9570                                                                  
  2318   117.0913    3469(58)          3315.2327         3279.9946                                                                  
  2319   117.1413    3445(58)          3316.1765         3281.0322                                                                  
  2320   117.1913    3249(57)          3317.2163         3282.0698                                                                  
  2321   117.2413    3414(58)          3318.3464         3283.1074                                                                  
  2322   117.2913    3325(57)          3319.5632         3284.1450                                                                  
  2323   117.3413    3367(58)          3320.8633         3285.1826                                                                  
  2324   117.3913    3413(58)          3322.2449         3286.2202                                                                  
  2325   117.4413    3508(59)          3323.7061         3287.2576                                                                  
  2326   117.4913    3338(57)          3325.2471         3288.2954                                                                  
  2327   117.5413    3308(57)          3326.8672         3289.3330                                                                  
  2328   117.5913    3372(58)          3328.5671         3290.3704                                                                  
  2329   117.6413    3455(58)          3330.3486         3291.4080                                                                  
  2330   117.6913    3369(58)          3332.2136         3292.4456                                                                  
  2331   117.7413    3405(58)          3334.1648         3293.4832                                                                  
  2332   117.7913    3315(57)          3336.2053         3294.5208                                                                  
  2333   117.8413    3356(57)          3338.3391         3295.5583                                                                  
  2334   117.8913    3330(57)          3340.5708         3296.5959                                                                  
  2335   117.9413    3392(58)          3342.9055         3297.6333                                                                  
  2336   117.9913    3283(57)          3345.3506         3298.6711                                                                  
  2337   118.0413    3324(57)          3347.9124         3299.7087                                                                  
  2338   118.0913    3438(58)          3350.5989         3300.7461                                                                  
  2339   118.1413    3313(57)          3353.4202         3301.7837                                                                  
  2340   118.1913    3253(57)          3356.3860         3302.8213                                                                  
  2341   118.2413    3358(57)          3359.5090         3303.8589                                                                  
  2342   118.2913    3437(58)          3362.8025         3304.8965                                                                  
  2343   118.3413    3392(58)          3366.2812         3305.9341                                                                  
  2344   118.3913    3379(58)          3369.9634         3306.9717                                                                  
  2345   118.4413    3373(58)          3373.8677         3308.0093                                                                  
  2346   118.4913    3436(58)          3378.0178         3309.0469                                                                  
  2347   118.5413    3337(57)          3382.4387         3310.0845                                                                  
  2348   118.5913    3429(58)          3387.1589         3311.1218                                                                  
  2349   118.6413    3364(58)          3392.2136         3312.1597                                                                  
  2350   118.6913    3303(57)          3397.6392         3313.1970                                                                  
  2351   118.7413    3369(58)          3403.4824         3314.2346                                                                  
  2352   118.7913    3466(58)          3409.7937         3315.2722                                                                  
  2353   118.8413    3345(57)          3416.7012         3316.3098                                                                  
  2354   118.8913    3375(58)          3424.1392         3317.3474                                                                  
  2355   118.9413    3445(58)          3432.2563         3318.3850                                                                  
  2356   118.9913    3508(59)          3441.1514         3319.4226                                                                  
  2357   119.0413    3436(58)          3450.9382         3320.4602                                                                  
  2358   119.0913    3277(57)          3461.7520         3321.4976                                                                  
  2359   119.1413    3309(57)          3473.7603         3322.5354                                                                  
  2360   119.1913    3356(57)          3487.1565         3323.5728                                                                  
  2361   119.2413    3420(58)          3502.1858         3324.6104                                                                  
  2362   119.2913    3370(58)          3519.1406         3325.6479                                                                  
  2363   119.3413    3427(58)          3538.3813         3326.6855                                                                  
  2364   119.3913    3418(58)          3560.3662         3327.7231                                                                  
  2365   119.4413    3338(57)          3585.6582         3328.7607                                                                  
  2366   119.4913    3412(58)          3614.9944         3329.7983                                                                  
  2367   119.5413    3580(59)          3649.3374         3330.8359                                                                  
  2368   119.5913    3531(59)          3690.0540         3331.8735                                                                  
  2369   119.6413    3526(59)          3739.3857         3332.9111                                                                  
  2370   119.6913    3599(59)          3801.6174         3333.9485                                                                  
  2371   119.7413    3840(61)          3886.2366         3334.9863                                                                  
  2372   119.7913    4035(63)          4014.9409         3336.0239                                                                  
  2373   119.8413    4341(65)          4235.5356         3337.0613                                                                  
  2374   119.8913    4835(69)          4644.6289         3338.0989                                                                  
  2375   119.9413    5854(76)          5414.8076         3339.1365                                                                  
  2376   119.9913    7269(85)          6812.4541         3340.1741                                                                  
  2377   120.0413    9617(98)          9175.2920         3341.2117                                                                  
  2378   120.0913    13349(115)         12820.5264         3342.2493                                                                
  2379   120.1413    18318(135)         17880.3945         3343.2869                                                                
  2380   120.1913    24331(155)         24103.0488         3344.3242                                                                
  2381   120.2413    31465(177)         30728.1602         3345.3618                                                                
  2382   120.2913    37468(193)         36501.3320         3346.3997                                                                
  2383   120.3413    41706(204)         39928.2031         3347.4370                                                                
  2384   120.3913    44272(210)         39892.7500         3348.4746                                                                
  2385   120.4413    43985(209)         36407.9961         3349.5122                                                                
  2386   120.4913    42084(205)         30605.6211         3350.5498                                                                
  2387   120.5413    39377(198)         23979.8379         3351.5874                                                                
  2388   120.5913    37380(193)         17776.7773         3352.6250                                                                
  2389   120.6413    35066(187)         12746.2285         3353.6626                                                                
  2390   120.6913    32410(180)          9130.8066         3354.7002                                                                
  2391   120.7413    29793(172)          6792.6475         3355.7378                                                                
  2392   120.7913    25615(160)          5412.7363         3356.7754                                                                
  2393   120.8413    21172(145)          4654.1484         3357.8127                                                                
  2394   120.8913    16836(129)          4252.3291         3358.8506                                                                
  2395   120.9413    12724(112)          4036.4102         3359.8879                                                                
  2396   120.9913    9639(98)          3911.0801         3360.9255                                                                  
  2397   121.0413    7435(86)          3829.2119         3361.9631                                                                  
  2398   121.0913    5990(77)          3769.4575         3363.0007                                                                  
  2399   121.1413    5086(71)          3722.4839         3364.0383                                                                  
  2400   121.1913    4504(67)          3684.0684         3365.0759                                                                  
  2401   121.2413    4289(65)          3651.9946         3366.1135                                                                  
  2402   121.2913    4154(64)          3624.9067         3367.1511                                                                  
  2403   121.3413    3967(62)          3601.8481         3368.1885                                                                  
  2404   121.3913    3688(60)          3582.0859         3369.2261                                                                  
  2405   121.4413    3498(59)          3565.0596         3370.2637                                                                  
  2406   121.4913    3480(58)          3550.3130         3371.3013                                                                  
  2407   121.5413    3489(59)          3537.4319         3372.3389                                                                  
  2408   121.5913    3551(59)          3526.2368         3373.3765                                                                  
  2409   121.6413    3512(59)          3516.4282         3374.4141                                                                  
  2410   121.6913    3539(59)          3507.8127         3375.4517                                                                  
  2411   121.7413    3477(58)          3500.2236         3376.4893                                                                  
  2412   121.7913    3428(58)          3493.5269         3377.5269                                                                  
  2413   121.8413    3427(58)          3487.6091         3378.5645                                                                  
  2414   121.8913    3475(58)          3482.3718         3379.6021                                                                  
  2415   121.9413    3483(59)          3477.7349         3380.6394                                                                  
  2416   121.9913    3441(58)          3473.6279         3381.6772                                                                  
  2417   122.0413    3432(58)          3469.9917         3382.7148                                                                  
  2418   122.0913    3375(58)          3466.7756         3383.7522                                                                  
  2419   122.1413    3358(57)          3463.9343         3384.7898                                                                  
  2420   122.1913    3321(57)          3461.4312         3385.8274                                                                  
  2421   122.2413    3408(58)          3459.2317         3386.8650                                                                  
  2422   122.2913    3411(58)          3457.3074         3387.9026                                                                  
  2423   122.3413    3429(58)          3455.6338         3388.9402                                                                  
  2424   122.3913    3412(58)          3454.1877         3389.9778                                                                  
  2425   122.4413    3435(58)          3452.9507         3391.0151                                                                  
  2426   122.4913    3482(59)          3451.9053         3392.0527                                                                  
  2427   122.5413    3451(58)          3451.0371         3393.0906                                                                  
  2428   122.5913    3388(58)          3450.3328         3394.1279                                                                  
  2429   122.6413    3434(58)          3449.7808         3395.1655                                                                  
  2430   122.6913    3432(58)          3449.3716         3396.2031                                                                  
  2431   122.7413    3531(59)          3449.0959         3397.2407                                                                  
  2432   122.7913    3493(59)          3448.9465         3398.2783                                                                  
  2433   122.8413    3407(58)          3448.9170         3399.3159                                                                  
  2434   122.8913    3438(58)          3449.0012         3400.3535                                                                  
  2435   122.9413    3444(58)          3449.1951         3401.3911                                                                  
  2436   122.9913    3512(59)          3449.4941         3402.4287                                                                  
  2437   123.0413    3360(57)          3449.8955         3403.4663                                                                  
  2438   123.0913    3402(58)          3450.3970         3404.5037                                                                  
  2439   123.1413    3501(59)          3450.9971         3405.5415                                                                  
  2440   123.1913    3397(58)          3451.6943         3406.5789                                                                  
  2441   123.2413    3328(57)          3452.4893         3407.6165                                                                  
  2442   123.2913    3481(59)          3453.3818         3408.6541                                                                  
  2443   123.3413    3429(58)          3454.3735         3409.6917                                                                  
  2444   123.3913    3346(57)          3455.4666         3410.7292                                                                  
  2445   123.4413    3522(59)          3456.6636         3411.7666                                                                  
  2446   123.4913    3335(57)          3457.9690         3412.8044                                                                  
  2447   123.5413    3343(57)          3459.3872         3413.8420                                                                  
  2448   123.5913    3541(59)          3460.9238         3414.8794                                                                  
  2449   123.6413    3447(58)          3462.5867         3415.9170                                                                  
  2450   123.6913    3472(58)          3464.3840         3416.9546                                                                  
  2451   123.7413    3466(58)          3466.3264         3417.9922                                                                  
  2452   123.7913    3420(58)          3468.4253         3419.0298                                                                  
  2453   123.8413    3471(58)          3470.6951         3420.0674                                                                  
  2454   123.8913    3388(58)          3473.1521         3421.1050                                                                  
  2455   123.9413    3402(58)          3475.8162         3422.1426                                                                  
  2456   123.9913    3402(58)          3478.7102         3423.1802                                                                  
  2457   124.0413    3537(59)          3481.8613         3424.2178                                                                  
  2458   124.0913    3514(59)          3485.3010         3425.2554                                                                  
  2459   124.1413    3326(57)          3489.0684         3426.2930                                                                  
  2460   124.1913    3410(58)          3493.2068         3427.3303                                                                  
  2461   124.2413    3405(58)          3497.7727         3428.3679                                                                  
  2462   124.2913    3525(59)          3502.8306         3429.4058                                                                  
  2463   124.3413    3546(59)          3508.4578         3430.4431                                                                  
  2464   124.3913    3596(59)          3514.7524         3431.4807                                                                  
  2465   124.4413    3503(59)          3521.8308         3432.5183                                                                  
  2466   124.4913    3453(58)          3529.8406         3433.5559                                                                  
  2467   124.5413    3343(57)          3538.9626         3434.5935                                                                  
  2468   124.5913    3406(58)          3549.4270         3435.6309                                                                  
  2469   124.6413    3544(59)          3561.5405         3436.6687                                                                  
  2470   124.6913    3591(59)          3575.7234         3437.7061                                                                  
  2471   124.7413    3523(59)          3592.6499         3438.7437                                                                  
  2472   124.7913    3495(59)          3613.5481         3439.7815                                                                  
  2473   124.8413    3537(59)          3640.9717         3440.8188                                                                  
  2474   124.8913    3719(60)          3680.5183         3441.8564                                                                  
  2475   124.9413    3903(62)          3744.0938         3442.8940                                                                  
  2476   124.9913    4115(64)          3855.3984         3443.9316                                                                  
  2477   125.0413    4316(65)          4056.9434         3444.9692                                                                  
  2478   125.0913    4708(68)          4415.9297         3446.0068                                                                  
  2479   125.1413    5437(73)          5023.3198         3447.0444                                                                  
  2480   125.1913    6569(81)          5977.4297         3448.0820                                                                  
  2481   125.2413    8200(90)          7349.4546         3449.1196                                                                  
  2482   125.2913    10228(101)          9133.0176         3450.1572                                                                
  2483   125.3413    12795(113)         11198.0234         3451.1946                                                                
  2484   125.3913    15551(124)         13271.1992         3452.2324                                                                
  2485   125.4413    17492(132)         14955.8428         3453.2698                                                                
  2486   125.4913    18920(137)         15823.6895         3454.3074                                                                
  2487   125.5413    19514(139)         15604.4014         3455.3450                                                                
  2488   125.5913    19159(138)         14370.5312         3456.3826                                                                
  2489   125.6413    18402(135)         12482.0879         3457.4202                                                                
  2490   125.6913    17503(132)         10372.4863         3458.4575                                                                
  2491   125.7413    16694(129)          8395.1494         3459.4954                                                                
  2492   125.7913    16206(127)          6767.5269         3460.5330                                                                
  2493   125.8413    15903(126)          5566.2549         3461.5703                                                                
  2494   125.8913    15075(122)          4761.2695         3462.6079                                                                
  2495   125.9413    13835(117)          4265.3564         3463.6455                                                                
  2496   125.9913    12038(109)          3979.7410         3464.6831                                                                
  2497   126.0413    10289(101)          3822.0256         3465.7207                                                                
  2498   126.0913    8659(93)          3735.1128         3466.7583                                                                  
  2499   126.1413    7085(84)          3684.7424         3467.7959                                                                  
  2500   126.1913    5753(75)          3652.7185         3468.8335                                                                  
  2501   126.2413    5021(70)          3630.0220         3469.8711                                                                  
  2502   126.2913    4602(67)          3612.6033         3470.9087                                                                  
  2503   126.3413    4265(65)          3598.5659         3471.9463                                                                  
  2504   126.3913    3852(62)          3586.9546         3472.9839                                                                  
  2505   126.4413    3793(61)          3577.2219         3474.0212                                                                  
  2506   126.4913    3718(60)          3568.9968         3475.0588                                                                  
  2507   126.5413    3702(60)          3562.0093         3476.0967                                                                  
  2508   126.5913    3530(59)          3556.0486         3477.1340                                                                  
  2509   126.6413    3500(59)          3550.9463         3478.1716                                                                  
  2510   126.6913    3490(59)          3546.5696         3479.2092                                                                  
  2511   126.7413    3498(59)          3542.8074         3480.2468                                                                  
  2512   126.7913    3526(59)          3539.5708         3481.2844                                                                  
  2513   126.8413    3382(58)          3538.4016         3482.3218                                                                  
  2514   126.8913    3595(59)          3536.0168         3483.3596                                                                  
  2515   126.9413    3440(58)          3533.9709         3484.3970                                                                  
  2516   126.9913    3499(59)          3532.2207         3485.4346                                                                  
  2517   127.0413    3400(58)          3530.7297         3486.4722                                                                  
  2518   127.0913    3447(58)          3529.4673         3487.5098                                                                  
  2519   127.1413    3400(58)          3528.4065         3488.5474                                                                  
  2520   127.1913    3378(58)          3527.5249         3489.5850                                                                  
  2521   127.2413    3417(58)          3526.8022         3490.6226                                                                  
  2522   127.2913    3403(58)          3526.2222         3491.6602                                                                  
  2523   127.3413    3513(59)          3525.7698         3492.6978                                                                  
  2524   127.3913    3416(58)          3525.4321         3493.7354                                                                  
  2525   127.4413    3496(59)          3525.1980         3494.7727                                                                  
  2526   127.4913    3436(58)          3525.0576         3495.8105                                                                  
  2527   127.5413    3526(59)          3525.0022         3496.8481                                                                  
  2528   127.5913    3582(59)          3525.0239         3497.8855                                                                  
  2529   127.6413    3481(59)          3525.1165         3498.9233                                                                  
  2530   127.6913    3583(59)          3525.2732         3499.9607                                                                  
  2531   127.7413    3462(58)          3525.4890         3500.9983                                                                  
  2532   127.7913    3462(58)          3525.7593         3502.0359                                                                  
  2533   127.8413    3470(58)          3526.0796         3503.0735                                                                  
  2534   127.8913    3441(58)          3526.4460         3504.1111                                                                  
  2535   127.9413    3470(58)          3526.8552         3505.1484                                                                  
  2536   127.9913    3464(58)          3527.3042         3506.1860                                                                  
  2537   128.0413    3481(59)          3527.7905         3507.2239                                                                  
  2538   128.0913    3530(59)          3528.3110         3508.2615                                                                  
  2539   128.1413    3473(58)          3528.8638         3509.2988                                                                  
  2540   128.1913    3542(59)          3529.4468         3510.3364                                                                  
  2541   128.2413    3577(59)          3530.0583         3511.3740                                                                  
  2542   128.2913    3611(60)          3530.6968         3512.4116                                                                  
  2543   128.3413    3561(59)          3531.3606         3513.4492                                                                  
  2544   128.3913    3384(58)          3532.0486         3514.4868                                                                  
  2545   128.4413    3428(58)          3532.3850         3515.1499                                                                  
  2546   128.4913    3433(58)          3532.5981         3515.6675                                                                  
  2547   128.5413    3478(58)          3532.8323         3516.1851                                                                  
  2548   128.5913    3583(59)          3533.0869         3516.7029                                                                  
  2549   128.6413    3425(58)          3533.3608         3517.2202                                                                  
  2550   128.6913    3491(59)          3533.6543         3517.7378                                                                  
  2551   128.7413    3431(58)          3533.9666         3518.2554                                                                  
  2552   128.7913    3455(58)          3534.2974         3518.7729                                                                  
  2553   128.8413    3606(60)          3534.6467         3519.2908                                                                  
  2554   128.8913    3506(59)          3535.0139         3519.8081                                                                  
  2555   128.9413    3474(58)          3535.3994         3520.3257                                                                  
  2556   128.9913    3643(60)          3535.8035         3520.8433                                                                  
  2557   129.0413    3532(59)          3536.2263         3521.3608                                                                  
  2558   129.0913    3429(58)          3536.6685         3521.8787                                                                  
  2559   129.1413    3444(58)          3537.1299         3522.3960                                                                  
  2560   129.1913    3473(58)          3537.6123         3522.9136                                                                  
  2561   129.2413    3510(59)          3538.1162         3523.4312                                                                  
  2562   129.2913    3406(58)          3538.6428         3523.9487                                                                  
  2563   129.3413    3499(59)          3539.1941         3524.4666                                                                  
  2564   129.3913    3451(58)          3539.7708         3524.9839                                                                  
  2565   129.4413    3553(59)          3540.6475         3525.5015                                                                  
  2566   129.4913    3486(59)          3541.2844         3526.0190                                                                  
  2567   129.5413    3530(59)          3541.9551         3526.5366                                                                  
  2568   129.5913    3434(58)          3542.6636         3527.0544                                                                  
  2569   129.6413    3397(58)          3543.4131         3527.5718                                                                  
  2570   129.6913    3608(60)          3544.2097         3528.0894                                                                  
  2571   129.7413    3522(59)          3545.0596         3528.6069                                                                  
  2572   129.7913    3466(58)          3545.9702         3529.1245                                                                  
  2573   129.8413    3501(59)          3546.9509         3529.6421                                                                  
  2574   129.8913    3511(59)          3548.0127         3530.1597                                                                  
  2575   129.9413    3503(59)          3549.1697         3530.6772                                                                  
  2576   129.9913    3459(58)          3550.4387         3531.1948                                                                  
  2577   130.0413    3536(59)          3551.8416         3531.7124                                                                  
  2578   130.0913    3554(59)          3553.4058         3532.2300                                                                  
  2579   130.1413    3536(59)          3555.1665         3532.7476                                                                  
  2580   130.1913    3529(59)          3557.1758         3533.2651                                                                  
  2581   130.2413    3460(58)          3559.5146         3533.7827                                                                  
  2582   130.2913    3495(59)          3562.3315         3534.3003                                                                  
  2583   130.3413    3561(59)          3565.9324         3534.8179                                                                  
  2584   130.3913    3522(59)          3570.9695         3535.3354                                                                  
  2585   130.4413    3562(59)          3578.8035         3535.8530                                                                  
  2586   130.4913    3568(59)          3592.0576         3536.3706                                                                  
  2587   130.5413    3546(59)          3615.3103         3536.8882                                                                  
  2588   130.5913    3543(59)          3655.5908         3537.4058                                                                  
  2589   130.6413    3665(60)          3722.0527         3537.9233                                                                  
  2590   130.6913    3855(62)          3824.2461         3538.4409                                                                  
  2591   130.7413    3889(62)          3968.3457         3538.9585                                                                  
  2592   130.7913    3976(63)          4152.3794         3539.4761                                                                  
  2593   130.8413    4224(64)          4361.9316         3539.9937                                                                  
  2594   130.8913    4227(65)          4568.3286         3540.5112                                                                  
  2595   130.9413    4278(65)          4731.1997         3541.0288                                                                  
  2596   130.9913    4319(65)          4807.7119         3541.5464                                                                  
  2597   131.0413    4389(66)          4773.4912         3542.0640                                                                  
  2598   131.0913    4401(66)          4640.0532         3542.5815                                                                  
  2599   131.1413    4249(65)          4446.0669         3543.0991                                                                  
  2600   131.1913    4242(65)          4234.5068         3543.6167                                                                  
  2601   131.2413    4348(65)          4039.1567         3544.1343                                                                  
  2602   131.2913    4150(64)          3879.8540         3544.6519                                                                  
  2603   131.3413    4170(64)          3762.9341         3545.1694                                                                  
  2604   131.3913    4143(64)          3684.7651         3545.6870                                                                  
  2605   131.4413    4043(63)          3636.5388         3546.2046                                                                  
  2606   131.4913    4147(64)          3608.6624         3546.7222                                                                  
  2607   131.5413    4070(64)          3593.1787         3547.2397                                                                  
  2608   131.5913    3812(62)          3584.6016         3547.7573                                                                  
  2609   131.6413    3743(61)          3579.6396         3548.2749                                                                  
  2610   131.6913    3848(62)          3576.5232         3548.7925                                                                  
  2611   131.7413    3716(61)          3574.3838         3549.3101                                                                  
  2612   131.7913    3597(61)          3572.8118         3549.8276                                                                  
  2613   131.8413    3537(60)          3571.6130         3550.3452                                                                  
  2614   131.8913    3442(59)          3568.9954         3550.8628                                                                  
  2615   131.9413    3626(61)          3568.2959         3551.3804                                                                  
  2616   131.9913    3594(61)          3567.7676         3551.8979                                                                  
  2617   132.0413    3634(61)          3567.3801         3552.4155                                                                  
  2618   132.0913    3574(61)          3567.1096         3552.9331                                                                  
  2619   132.1413    3578(61)          3566.9375         3553.4507                                                                  
  2620   132.1913    3565(61)          3566.8481         3553.9683                                                                  
  2621   132.2413    3576(61)          3566.8293         3554.4858                                                                  
  2622   132.2913    3627(62)          3566.8711         3555.0034                                                                  
  2623   132.3413    3581(62)          3566.9651         3555.5210                                                                  
  2624   132.3913    3617(62)          3567.1042         3556.0386                                                                  
  2625   132.4413    3574(62)          3567.2827         3556.5562                                                                  
  2626   132.4913    3580(62)          3567.4956         3557.0737                                                                  
  2627   132.5413    3563(62)          3567.7388         3557.5913                                                                  
  2628   132.5913    3598(62)          3568.0085         3558.1089                                                                  
  2629   132.6413    3624(63)          3568.3022         3558.6265                                                                  
  2630   132.6913    3696(64)          3568.6169         3559.1440                                                                  
  2631   132.7413    3619(63)          3568.9507         3559.6616                                                                  
  2632   132.7913    3558(63)          3569.3013         3560.1792                                                                  
  2633   132.8413    3681(64)          3569.6672         3560.6968                                                                  
  2634   132.8913    3588(63)          3570.0471         3561.2144                                                                  
  2635   132.9413    3598(63)          3570.4392         3561.7319                                                                  
  2636   132.9913    3647(64)          3570.8430         3562.2495                                                                  
  2637   133.0413    3573(63)          3571.2571         3562.7671                                                                  
  2638   133.0913    3568(63)          3571.6807         3563.2847                                                                  
  2639   133.1413    3559(63)          3572.1130         3563.8022                                                                  
  2640   133.1913    3569(64)          3572.5535         3564.3198                                                                  
  2641   133.2413    3601(64)          3573.0012         3564.8374                                                                  
  2642   133.2913    3621(64)          3573.4561         3565.3550                                                                  
  2643   133.3413    3528(64)          3573.9170         3565.8726                                                                  
  2644   133.3913    3656(65)          3574.3840         3566.3901                                                                  
  2645   133.4413    3589(65)          3574.8567         3566.9077                                                                  
  2646   133.4913    3575(64)          3575.3345         3567.4253                                                                  
  2647   133.5413    3507(64)          3575.8171         3567.9429                                                                  
  2648   133.5913    3516(64)          3576.3044         3568.4604                                                                  
  2649   133.6413    3641(65)          3576.7959         3568.9780                                                                  
  2650   133.6913    3637(66)          3577.2917         3569.4956                                                                  
  2651   133.7413    3621(66)          3577.7913         3570.0132                                                                  
  2652   133.7913    3634(66)          3578.2944         3570.5308                                                                  
  2653   133.8413    3663(66)          3578.8010         3571.0483                                                                  
  2654   133.8913    3657(66)          3579.3110         3571.5659                                                                  
  2655   133.9413    3647(66)          3579.8242         3572.0835                                                                  
  2656   133.9913    3570(66)          3580.3403         3572.6011                                                                  
  2657   134.0413    3676(67)          3580.8596         3573.1187                                                                  
  2658   134.0913    3762(68)          3581.3816         3573.6362                                                                  
  2659   134.1413    3675(67)          3581.9062         3574.1538                                                                  
  2660   134.1913    3612(67)          3582.4336         3574.6714                                                                  
  2661   134.2413    3651(67)          3582.9634         3575.1890                                                                  
  2662   134.2913    3658(67)          3583.4956         3575.7065                                                                  
  2663   134.3413    3584(67)          3584.0305         3576.2241                                                                  
  2664   134.3913    3663(68)          3584.5674         3576.7417                                                                  
  2665   134.4413    3765(69)          3585.1069         3577.2593                                                                  
  2666   134.4913    3753(69)          3585.6484         3577.7769                                                                  
  2667   134.5413    3544(67)          3586.1921         3578.2944                                                                  
  2668   134.5913    3688(68)          3586.7380         3578.8120                                                                  
  2669   134.6413    3524(67)          3587.2861         3579.3296                                                                  
  2670   134.6913    3622(68)          3587.8362         3579.8472                                                                  
  2671   134.7413    3610(68)          3588.3884         3580.3647                                                                  
  2672   134.7913    3481(67)          3588.9426         3580.8823                                                                  
  2673   134.8413    3447(67)          3589.4988         3581.3999                                                                  
  2674   134.8913    3590(68)          3590.0571         3581.9175                                                                  
  2675   134.9413    3566(68)          3590.6172         3582.4351                                                                  
  2676   134.9913    3562(68)          3591.1794         3582.9526                                                                  
  2677   135.0413    3615(69)          3591.7434         3583.4702                                                                  
  2678   135.0913    3678(70)          3592.3096         3583.9878                                                                  
  2679   135.1413    3766(71)          3592.8774         3584.5054                                                                  
  2680   135.1913    3700(70)          3593.4475         3585.0229                                                                  
  2681   135.2413    3638(70)          3594.0195         3585.5405                                                                  
  2682   135.2913    3595(69)          3594.5933         3586.0581                                                                  
  2683   135.3413    3572(69)          3595.1692         3586.5757                                                                  
  2684   135.3913    3617(70)          3595.7471         3587.0933                                                                  
  2685   135.4413    3644(70)          3596.3269         3587.6108                                                                  
  2686   135.4913    3574(70)          3596.9087         3588.1284                                                                  
  2687   135.5413    3487(69)          3597.4924         3588.6460                                                                  
  2688   135.5913    3647(71)          3598.0784         3589.1636                                                                  
  2689   135.6413    3766(72)          3598.6663         3589.6812                                                                  
  2690   135.6913    3681(71)          3599.2563         3590.1987                                                                  
  2691   135.7413    3617(71)          3599.8484         3590.7163                                                                  
  2692   135.7913    3568(71)          3600.4426         3591.2339                                                                  
  2693   135.8413    3501(70)          3601.0391         3591.7515                                                                  
  2694   135.8913    3660(72)          3601.6377         3592.2690                                                                  
  2695   135.9413    3638(72)          3602.2385         3592.7866                                                                  
  2696   135.9913    3504(70)          3602.8416         3593.3042                                                                  
  2697   136.0413    3638(72)          3603.4470         3593.8218                                                                  
  2698   136.0913    3666(72)          3604.0547         3594.3394                                                                  
  2699   136.1413    3681(73)          3604.6646         3594.8569                                                                  
  2700   136.1913    3687(73)          3605.2771         3595.3745                                                                  
  2701   136.2413    3597(72)          3605.8918         3595.8921                                                                  
  2702   136.2913    3707(73)          3606.5093         3596.4097                                                                  
  2703   136.3413    3665(73)          3607.1292         3596.9272                                                                  
  2704   136.3913    3657(73)          3607.7517         3597.4448                                                                  
  2705   136.4413    3614(73)          3608.3770         3597.9624                                                                  
  2706   136.4913    3681(74)          3609.0049         3598.4800                                                                  
  2707   136.5413    3764(75)          3609.6355         3598.9976                                                                  
  2708   136.5913    3558(73)          3610.2690         3599.5151                                                                  
  2709   136.6413    3644(74)          3610.9055         3600.0327                                                                  
  2710   136.6913    3811(76)          3611.5449         3600.5503                                                                  
  2711   136.7413    3840(76)          3612.1873         3601.0679                                                                  
  2712   136.7913    3620(74)          3612.8328         3601.5854                                                                  
  2713   136.8413    3577(74)          3613.4814         3602.1030                                                                  
  2714   136.8913    3611(74)          3614.1331         3602.6204                                                                  
  2715   136.9413    3708(75)          3614.7886         3603.1382                                                                  
  2716   136.9913    3751(76)          3615.4475         3603.6558                                                                  
  2717   137.0413    3566(74)          3616.1096         3604.1733                                                                  
  2718   137.0913    3672(75)          3616.7756         3604.6909                                                                  
  2719   137.1413    3588(75)          3617.4448         3605.2083                                                                  
  2720   137.1913    3739(76)          3618.1184         3605.7261                                                                  
  2721   137.2413    3747(77)          3618.7959         3606.2437                                                                  
  2722   137.2913    3748(77)          3619.4773         3606.7612                                                                  
  2723   137.3413    3814(78)          3620.1626         3607.2788                                                                  
  2724   137.3913    3862(78)          3620.8521         3607.7961                                                                  
  2725   137.4413    3911(79)          3621.5466         3608.3140                                                                  
  2726   137.4913    3857(78)          3622.2454         3608.8315                                                                  
  2727   137.5413    3626(76)          3622.9485         3609.3491                                                                  
  2728   137.5913    3757(78)          3623.6567         3609.8667                                                                  
  2729   137.6413    3689(77)          3623.7698         3610.3840                                                                  
  2730   137.6913    3626(77)          3624.4932         3610.9019                                                                  
  2731   137.7413    3672(77)          3625.2214         3611.4194                                                                  
  2732   137.7913    3660(77)          3625.9551         3611.9370                                                                  
  2733   137.8413    3603(77)          3626.6943         3612.4546                                                                  
  2734   137.8913    3644(77)          3627.4390         3612.9719                                                                  
  2735   137.9413    3644(78)          3628.1899         3613.4897                                                                  
  2736   137.9913    3526(76)          3628.9470         3614.0073                                                                  
  2737   138.0413    3710(79)          3629.7102         3614.5249                                                                  
  2738   138.0913    3751(79)          3630.4802         3615.0425                                                                  
  2739   138.1413    3757(79)          3631.2563         3615.5598                                                                  
  2740   138.1913    3641(78)          3632.0403         3616.0776                                                                  
  2741   138.2413    3721(79)          3632.8311         3616.5952                                                                  
  2742   138.2913    3755(80)          3633.6294         3617.1128                                                                  
  2743   138.3413    3694(79)          3634.4355         3617.6304                                                                  
  2744   138.3913    3673(79)          3635.2495         3618.1477                                                                  
  2745   138.4413    3757(80)          3636.0723         3618.6655                                                                  
  2746   138.4913    3797(81)          3636.9036         3619.1831                                                                  
  2747   138.5413    3666(80)          3637.7439         3619.7007                                                                  
  2748   138.5913    3768(81)          3638.5935         3620.2183                                                                  
  2749   138.6413    3784(81)          3639.4524         3620.7356                                                                  
  2750   138.6913    3703(81)          3640.3220         3621.2534                                                                  
  2751   138.7413    3855(82)          3641.2019         3621.7710                                                                  
  2752   138.7913    3853(83)          3642.0928         3622.2886                                                                  
  2753   138.8413    3721(81)          3642.9949         3622.8062                                                                  
  2754   138.8913    3544(79)          3643.9084         3623.3235                                                                  
  2755   138.9413    3606(80)          3644.8347         3623.8411                                                                  
  2756   138.9913    3740(82)          3645.7739         3624.3589                                                                  
  2757   139.0413    3690(82)          3646.7263         3624.8765                                                                  
  2758   139.0913    3645(81)          3647.6926         3625.3940                                                                  
  2759   139.1413    3758(83)          3648.6729         3625.9114                                                                  
  2760   139.1913    3591(81)          3649.6687         3626.4290                                                                  
  2761   139.2413    3746(83)          3650.6804         3626.9468                                                                  
  2762   139.2913    3720(83)          3651.7085         3627.4644                                                                  
  2763   139.3413    3705(83)          3652.7539         3627.9819                                                                  
  2764   139.3913    3727(83)          3653.8884         3628.5710                                                                  
  2765   139.4413    3689(83)          3655.4839         3629.6018                                                                  
  2766   139.4913    3797(84)          3657.0989         3630.6328                                                                  
  2767   139.5413    3725(84)          3658.7346         3631.6636                                                                  
  2768   139.5913    3682(83)          3660.3918         3632.6943                                                                  
  2769   139.6413    3629(83)          3662.0710         3633.7249                                                                  
  2770   139.6913    3657(83)          3663.7747         3634.7556                                                                  
  2771   139.7413    3705(84)          3665.5034         3635.7866                                                                  
  2772   139.7913    3781(85)          3667.2581         3636.8174                                                                  
  2773   139.8413    3713(85)          3669.0400         3637.8481                                                                  
  2774   139.8913    3697(85)          3670.8506         3638.8787                                                                  
  2775   139.9413    3599(84)          3672.6919         3639.9094                                                                  
  2776   139.9913    3620(84)          3674.5654         3640.9404                                                                  
  2777   140.0413    3698(85)          3676.4727         3641.9712                                                                  
  2778   140.0913    3826(87)          3678.4150         3643.0020                                                                  
  2779   140.1413    3623(85)          3680.3945         3644.0325                                                                  
  2780   140.1913    3743(86)          3682.4141         3645.0632                                                                  
  2781   140.2413    3781(87)          3684.4756         3646.0942                                                                  
  2782   140.2913    3778(87)          3686.5813         3647.1250                                                                  
  2783   140.3413    3739(87)          3688.7334         3648.1558                                                                  
  2784   140.3913    3611(85)          3690.9343         3649.1863                                                                  
  2785   140.4413    3698(86)          3693.1885         3650.2170                                                                  
  2786   140.4913    3730(87)          3695.4983         3651.2480                                                                  
  2787   140.5413    3769(88)          3697.8672         3652.2788                                                                  
  2788   140.5913    3792(88)          3700.2983         3653.3096                                                                  
  2789   140.6413    3785(88)          3702.7959         3654.3401                                                                  
  2790   140.6913    3844(89)          3705.3650         3655.3708                                                                  
  2791   140.7413    3807(89)          3708.0095         3656.4016                                                                  
  2792   140.7913    3691(88)          3710.7351         3657.4326                                                                  
  2793   140.8413    3757(89)          3713.5466         3658.4634                                                                  
  2794   140.8913    3730(88)          3716.4495         3659.4939                                                                  
  2795   140.9413    3825(90)          3719.4517         3660.5247                                                                  
  2796   140.9913    3719(89)          3722.5593         3661.5554                                                                  
  2797   141.0413    3709(89)          3725.7808         3662.5864                                                                  
  2798   141.0913    3689(89)          3729.1233         3663.6172                                                                  
  2799   141.1413    3770(90)          3732.5957         3664.6477                                                                  
  2800   141.1913    3775(90)          3736.2100         3665.6785                                                                  
  2801   141.2413    3704(89)          3739.9761         3666.7092                                                                  
  2802   141.2913    3676(89)          3743.9062         3667.7402                                                                  
  2803   141.3413    3661(89)          3748.0137         3668.7710                                                                  
  2804   141.3913    3833(92)          3752.3118         3669.8015                                                                  
  2805   141.4413    3736(91)          3756.8193         3670.8323                                                                  
  2806   141.4913    3723(91)          3761.5535         3671.8630                                                                  
  2807   141.5413    3573(89)          3766.5339         3672.8940                                                                  
  2808   141.5913    3789(92)          3771.7830         3673.9248                                                                  
  2809   141.6413    3661(90)          3777.3237         3674.9553                                                                  
  2810   141.6913    3722(91)          3783.1873         3675.9861                                                                  
  2811   141.7413    3751(92)          3789.4031         3677.0168                                                                  
  2812   141.7913    3774(92)          3796.0063         3678.0479                                                                  
  2813   141.8413    3821(93)          3803.0359         3679.0786                                                                  
  2814   141.8913    3774(93)          3810.5339         3680.1091                                                                  
  2815   141.9413    3765(93)          3818.5552         3681.1399                                                                  
  2816   141.9913    3629(91)          3827.1548         3682.1707                                                                  
  2817   142.0413    3755(93)          3836.3979         3683.2017                                                                  
  2818   142.0913    3813(94)          3846.3584         3684.2324                                                                  
  2819   142.1413    3771(94)          3857.1184         3685.2629                                                                  
  2820   142.1913    3708(93)          3868.7827         3686.2937                                                                  
  2821   142.2413    3788(94)          3881.4619         3687.3245                                                                  
  2822   142.2913    3836(95)          3895.2878         3688.3555                                                                  
  2823   142.3413    3760(94)          3910.4141         3689.3862                                                                  
  2824   142.3913    3740(94)          3927.0154         3690.4167                                                                  
  2825   142.4413    3843(96)          3945.3154         3691.4475                                                                  
  2826   142.4913    3847(96)          3965.5642         3692.4783                                                                  
  2827   142.5413    3977(98)          3988.0728         3693.5093                                                                  
  2828   142.5913    4000(98)          4013.2327         3694.5400                                                                  
  2829   142.6413    4027(99)          4041.5547         3695.5706                                                                  
  2830   142.6913    3986(99)          4073.7944         3696.6013                                                                  
  2831   142.7413    4120(100)          4111.0806         3697.6321                                                                 
  2832   142.7913    4214(102)          4155.2793         3698.6631                                                                 
  2833   142.8413    4286(103)          4209.5874         3699.6938                                                                 
  2834   142.8913    4463(105)          4279.5215         3700.7244                                                                 
  2835   142.9413    4594(107)          4374.5957         3701.7551                                                                 
  2836   142.9913    4830(110)          4510.4863         3702.7859                                                                 
  2837   143.0413    5095(113)          4712.0635         3703.8167                                                                 
  2838   143.0913    5457(117)          5016.6235         3704.8477                                                                 
  2839   143.1413    5865(122)          5476.4492         3705.8782                                                                 
  2840   143.1913    6445(128)          6160.2197         3706.9089                                                                 
  2841   143.2413    7373(137)          7149.2295         3707.9397                                                                 
  2842   143.2913    8598(149)          8529.7969         3708.9705                                                                 
  2843   143.3413    10223(163)         10378.0137         3710.0015                                                                
  2844   143.3913    12130(177)         12738.8711         3711.0320                                                                
  2845   143.4413    15184(199)         15606.2559         3712.0627                                                                
  2846   143.4913    18735(222)         18897.7754         3713.0935                                                                
  2847   143.5413    22914(246)         22443.8691         3714.1243                                                                
  2848   143.5913    26366(264)         25984.4883         3715.1553                                                                
  2849   143.6413    29800(281)         29179.0996         3716.1858                                                                
  2850   143.6913    32523(295)         31641.9902         3717.2166                                                                
  2851   143.7413    34258(303)         33005.1016         3718.2473                                                                
  2852   143.7913    34451(305)         33032.9180         3719.2781                                                                
  2853   143.8413    34047(303)         31720.5410         3720.3091                                                                
  2854   143.8913    31535(293)         29296.8984         3721.3396                                                                
  2855   143.9413    29858(285)         26124.5664         3722.3704                                                                
  2856   143.9913    27937(277)         22592.6699         3723.4011                                                                
  2857   144.0413    26464(270)         19043.5098         3724.4319                                                                
  2858   144.0913    25560(266)         15740.5000         3725.4629                                                                
  2859   144.1413    24597(261)         12857.5488         3726.4934                                                                
  2860   144.1913    24328(260)         10477.8545         3727.5242                                                                
  2861   144.2413    24728(263)          8612.4492         3728.5549                                                                
  2862   144.2913    25067(265)          7217.1777         3729.5857                                                                
  2863   144.3413    24998(266)          6216.6509         3730.6167                                                                
  2864   144.3913    23994(261)          5524.9302         3731.6472                                                                
  2865   144.4413    22096(251)          5059.7598         3732.6780                                                                
  2866   144.4913    20025(239)          4752.3838         3733.7087                                                                
  2867   144.5413    17484(224)          4549.7300         3734.7395                                                                
  2868   144.5913    15257(210)          4413.9556         3735.7705                                                                
  2869   144.6413    13043(194)          4319.7949         3736.8010                                                                
  2870   144.6913    10863(178)          4251.2007         3737.8318                                                                
  2871   144.7413    9116(163)          4198.5391         3738.8625                                                                 
  2872   144.7913    8079(154)          4156.1504         3739.8933                                                                 
  2873   144.8413    7014(144)          4120.7695         3740.9243                                                                 
  2874   144.8913    6506(139)          4090.4990         3741.9546                                                                 
  2875   144.9413    5943(133)          4064.1653         3742.9856                                                                 
  2876   144.9913    5437(127)          4041.0269         3744.0164                                                                 
  2877   145.0413    5288(126)          4020.5583         3745.0471                                                                 
  2878   145.0913    4888(121)          4002.3638         3746.0781                                                                 
  2879   145.1413    4581(117)          3986.1340         3747.1084                                                                 
  2880   145.1913    4543(117)          3971.6033         3748.1394                                                                 
  2881   145.2413    4248(114)          3958.5613         3749.1702                                                                 
  2882   145.2913    4273(114)          3946.8271         3750.2009                                                                 
  2883   145.3413    4236(114)          3936.2466         3751.2319                                                                 
  2884   145.3913    4179(113)          3926.6890         3752.2622                                                                 
  2885   145.4413    4119(113)          3918.0352         3753.2932                                                                 
  2886   145.4913    4024(112)          3910.1887         3754.3240                                                                 
  2887   145.5413    3927(111)          3903.0645         3755.3547                                                                 
  2888   145.5913    3929(111)          3896.5874         3756.3855                                                                 
  2889   145.6413    3896(111)          3890.6941         3757.4160                                                                 
  2890   145.6913    3881(111)          3885.3235         3758.4470                                                                 
  2891   145.7413    4068(114)          3880.4270         3759.4778                                                                 
  2892   145.7913    3854(111)          3875.9602         3760.5085                                                                 
  2893   145.8413    3876(111)          3871.8835         3761.5393                                                                 
  2894   145.8913    3831(111)          3868.1631         3762.5698                                                                 
  2895   145.9413    3783(111)          3864.7659         3763.6008                                                                 
  2896   145.9913    3798(111)          3861.6648         3764.6316                                                                 
  2897   146.0413    3921(113)          3858.8350         3765.6624                                                                 
  2898   146.0913    3981(114)          3856.2544         3766.6931                                                                 
  2899   146.1413    3966(114)          3853.9036         3767.7236                                                                 
  2900   146.1913    3732(111)          3851.7632         3768.7546                                                                 
  2901   146.2413    3866(113)          3849.8176         3769.7854                                                                 
  2902   146.2913    3872(114)          3848.0522         3770.8162                                                                 
  2903   146.3413    3856(114)          3846.4536         3771.8469                                                                 
  2904   146.3913    3831(113)          3845.0103         3772.8774                                                                 
  2905   146.4413    3966(116)          3843.7104         3773.9084                                                                 
  2906   146.4913    3988(116)          3842.5442         3774.9392                                                                 
  2907   146.5413    3884(115)          3841.5029         3775.9700                                                                 
  2908   146.5913    3802(114)          3840.5781         3777.0007                                                                 
  2909   146.6413    4070(118)          3839.7625         3778.0312                                                                 
  2910   146.6913    4041(118)          3839.0486         3779.0623                                                                 
  2911   146.7413    3798(115)          3838.4302         3780.0930                                                                 
  2912   146.7913    3939(117)          3837.9016         3781.1238                                                                 
  2913   146.8413    3774(115)          3837.4578         3782.1545                                                                 
  2914   146.8913    3844(116)          3837.0935         3783.1851                                                                 
  2915   146.9413    4044(120)          3836.8042         3784.2161                                                                 
  2916   146.9913    3691(114)          3836.5857         3785.2468                                                                 
  2917   147.0413    3931(118)          3836.4343         3786.2776                                                                 
  2918   147.0913    3937(119)          3836.3467         3787.3083                                                                 
  2919   147.1413    3834(117)          3836.3193         3788.3389                                                                 
  2920   147.1913    3762(117)          3836.3494         3789.3696                                                                 
  2921   147.2413    3854(118)          3836.4343         3790.4006                                                                 
  2922   147.2913    3979(120)          3836.5710         3791.4314                                                                 
  2923   147.3413    3954(120)          3836.7576         3792.4622                                                                 
  2924   147.3913    3990(121)          3836.9917         3793.4927                                                                 
  2925   147.4413    4087(123)          3837.2715         3794.5234                                                                 
  2926   147.4913    3851(120)          3837.5957         3795.5544                                                                 
  2927   147.5413    3858(120)          3837.9617         3796.5852                                                                 
  2928   147.5913    3988(122)          3838.3682         3797.6160                                                                 
  2929   147.6413    4073(124)          3838.8142         3798.6465                                                                 
  2930   147.6913    4077(124)          3839.2983         3799.6772                                                                 
  2931   147.7413    3757(120)          3839.8198         3800.7083                                                                 
  2932   147.7913    3712(119)          3840.3767         3801.7390                                                                 
  2933   147.8413    3792(121)          3840.9690         3802.7698                                                                 
  2934   147.8913    3844(122)          3841.5952         3803.8003                                                                 
  2935   147.9413    3976(124)          3842.2551         3804.8311                                                                 
  2936   147.9913    3901(123)          3842.9482         3805.8621                                                                 
  2937   148.0413    3894(123)          3843.6736         3806.8928                                                                 
  2938   148.0913    3870(123)          3844.4309         3807.9236                                                                 
  2939   148.1413    3989(126)          3845.2200         3808.9541                                                                 
  2940   148.1913    4126(128)          3846.0405         3809.9849                                                                 
  2941   148.2413    3999(126)          3846.8928         3811.0159                                                                 
  2942   148.2913    4193(130)          3847.7761         3812.0466                                                                 
  2943   148.3413    4031(127)          3848.6909         3813.0774                                                                 
  2944   148.3913    3904(126)          3849.6370         3814.1079                                                                 
  2945   148.4413    3886(126)          3850.6152         3815.1387                                                                 
  2946   148.4913    3943(127)          3851.6257         3816.1697                                                                 
  2947   148.5413    3855(126)          3852.6687         3817.2004                                                                 
  2948   148.5913    3992(128)          3853.7446         3818.2312                                                                 
  2949   148.6413    3943(128)          3854.8542         3819.2617                                                                 
  2950   148.6913    3921(128)          3855.9990         3820.2925                                                                 
  2951   148.7413    3940(128)          3857.1794         3821.3235                                                                 
  2952   148.7913    3924(128)          3858.3962         3822.3542                                                                 
  2953   148.8413    3940(129)          3859.6509         3823.3850                                                                 
  2954   148.8913    3959(130)          3860.9446         3824.4155                                                                 
  2955   148.9413    3873(128)          3862.2793         3825.4463                                                                 
  2956   148.9913    3929(130)          3863.6567         3826.4773                                                                 
  2957   149.0413    3927(130)          3865.0784         3827.5081                                                                 
  2958   149.0913    3894(130)          3866.5464         3828.5388                                                                 
  2959   149.1413    3944(131)          3868.0630         3829.5693                                                                 
  2960   149.1913    3961(131)          3869.6313         3830.6001                                                                 
  2961   149.2413    3798(129)          3871.2546         3831.6311                                                                 
  2962   149.2913    3862(130)          3872.9351         3832.6619                                                                 
  2963   149.3413    3904(131)          3874.6768         3833.6926                                                                 
  2964   149.3913    3917(132)          3876.4832         3834.7231                                                                 
  2965   149.4413    3861(131)          3878.3596         3835.7539                                                                 
  2966   149.4913    3963(133)          3880.3105         3836.7847                                                                 
  2967   149.5413    3900(133)          3882.3413         3837.8157                                                                 
  2968   149.5913    3953(134)          3884.4575         3838.8464                                                                 
  2969   149.6413    4014(135)          3886.6658         3839.8770                                                                 
  2970   149.6913    3842(133)          3887.9644         3839.8977                                                                 
  2971   149.7413    3890(134)          3889.3503         3839.8977                                                                 
  2972   149.7913    3941(135)          3890.8538         3839.8977                                                                 
  2973   149.8413    4040(137)          3892.4849         3839.8977                                                                 
  2974   149.8913    3926(135)          3894.2549         3839.8977                                                                 
  2975   149.9413    4013(137)          3839.8977         3839.8977                                                                 
_pd_proc_number_of_points   2799
 
 
# The following lines are used to test the character set of files sent by     
# network email or other means. They are not part of the CIF data set.        
# abcdefghijklmnopqrstuvwxyzABCDEFGHIJKLMNOPQRSTUVWXYZ0123456789              
# !@#$%^&*()_+{}:"~<>?|\-=[];'`,./ 




_cell_formula_units_Z
1
_diffrn_source
'nuclear reactor'
_cell_length_a
3.99001(5)
_cell_length_b
3.99001(5)
_cell_length_c
3.99001(5)
_chemical_formula_analytical
K0.48Na0.48Li0.04Nb0.98Mn0.02O3
_diffrn_radiation_type
'neutron'
_publ_contact_author_email
manuel.hinterstein@gmail.com
_symmetry_space_group_name_Hall
'-P 4 2 3'
_chemical_formula_weight
170.23144
_refine_ls_number_restraints
0
_computing_structure_refinement
FULLPROF
_database_code_depnum_ccdc_archive
'CCDC 1828082'
_symmetry_space_group_name_H-M
'P m -3 m'
_cell_angle_gamma
90.0000
_cell_measurement_temperature
776
_pd_char_colour
grey
_refine_ls_number_reflns
26
_diffrn_source_type
'FRMII/SPODI'
_publ_requested_journal
J.Appl.Crystallogr.
_pd_meas_number_of_points
3014
_cell_volume
63.5217(13)
_publcif_datablock.id
'{d5f9e3f5-70ad-42d7-baff-8cab751434f3}'
_symmetry_cell_setting
Cubic
_diffrn_ambient_temperature
776
_chemical_name_common
KNN
_refine_ls_R_I_factor
0.042611
_diffrn_measurement_device_type
'powder diffractometer'
_publ_contact_author_name
'Manuel Hinterstein'
_cell_angle_alpha
90.0000
_refine_ls_number_parameters
26
_chemical_formula_sum
K0.48Na0.48Li0.04Nb0.98Mn0.02O3
_cell_angle_beta
90.0000
_pd_proc_wavelength
1.548165
loop_
_publ_author_name
_publ_author_address

;Hinterstein, Manuel
;


loop_
_atom_type_symbol
_atom_type_scat_length_neutron
_atom_type_scat_source
O 0.58030 V.F._Sears_Neutron_News_3_26_(1992)
Na 0.36300 V.F._Sears_Neutron_News_3_26_(1992)
K 0.36700 V.F._Sears_Neutron_News_3_26_(1992)
Li -0.19000 V.F._Sears_Neutron_News_3_26_(1992)
Nb 0.70540 V.F._Sears_Neutron_News_3_26_(1992)
Mn -0.37300 V.F._Sears_Neutron_News_3_26_(1992)

loop_
_symmetry_equiv_pos_as_xyz
x,y,z
x,-y,-z
-x,y,-z
-x,-y,z
y,z,x
-y,-z,x
y,-z,-x
-y,z,-x
z,x,y
-z,x,-y
-z,-x,y
z,-x,-y
y,x,z
-y,x,-z
y,-x,-z
-y,-x,z
z,y,x
-z,-y,x
-z,y,-x
z,-y,-x
x,z,y
x,-z,-y
-x,-z,y
-x,z,-y
-x,-y,-z
-x,y,z
x,-y,z
x,y,-z
-y,-z,-x
y,z,-x
-y,z,x
y,-z,x
-z,-x,-y
z,-x,y
z,x,-y
-z,x,y
-y,-x,-z
y,-x,z
-y,x,z
y,x,-z
-z,-y,-x
z,y,-x
z,-y,x
-z,y,x
-x,-z,-y
-x,z,y
x,z,-y
x,-z,y

loop_
_atom_site_label
_atom_site_fract_x
_atom_site_fract_y
_atom_site_fract_z
_atom_site_u_iso_or_equiv
_atom_site_occupancy
_atom_site_adp_type
_atom_site_type_symbol
O1 0.50000 0.00000 0.50000 0.0132(7) 1.00000 Uiso O
Na1 0.00000 0.00000 0.00000 0.0257(10) 0.48000 Uiso Na
K1 0.00000 0.00000 0.00000 0.0257(10) 0.48000 Uiso K
Li1 0.00000 0.00000 0.00000 0.0257(10) 0.03984 Uiso Li
Nb1 0.50000 0.50000 0.50000 0.0043(7) 0.98016 Uiso Nb
Mn1 0.50000 0.50000 0.50000 0.0043(7) 0.01008 Uiso Mn



loop_
_refln_index_h
_refln_index_k
_refln_index_l
_refln_mult
_pd_refln_phase_id
_refln_observed_status
_refln_f_squared_meas
_refln_f_squared_calc
_refln_phase_calc
_refln_d_spacing
1 0 0 6 1 o 1.2813 0.8515 180.00 3.99001
1 1 0 12 1 o 0.2742 0.1939 0.00 2.82136
1 1 1 8 1 o 2.4919 1.6707 0.00 2.30363
2 0 0 6 1 o 9.7243 6.7889 0.00 1.99501
2 1 0 24 1 o 1.2036 0.8312 180.00 1.78439
2 1 1 24 1 o 0.2882 0.1789 0.00 1.62892
2 2 0 12 1 o 8.3545 6.0119 0.00 1.41068
2 2 1 24 1 o 1.1218 0.8074 180.00 1.33000
3 0 0 6 1 o 1.1280 0.8074 180.00 1.33000
3 1 0 24 1 o 0.2145 0.1667 0.00 1.26175
3 1 1 24 1 o 1.5395 1.0978 0.00 1.20303
2 2 2 8 1 o 7.2529 5.3335 0.00 1.15182
3 2 0 24 1 o 0.9254 0.7809 180.00 1.10663
3 2 1 48 1 o 0.2052 0.1567 0.00 1.06638
4 0 0 6 1 o 6.2714 4.7400 0.00 0.99750
3 2 2 24 1 o 0.9919 0.7524 180.00 0.96772
4 1 0 24 1 o 1.0167 0.7524 180.00 0.96772
3 3 0 12 1 o 0.2582 0.1484 0.00 0.94045
4 1 1 24 1 o 0.2626 0.1484 0.00 0.94045
3 3 1 24 1 o 0.9355 0.7097 0.00 0.91537
4 2 0 24 1 o 5.3987 4.2200 0.00 0.89219
4 2 1 48 1 o 1.0076 0.7226 180.00 0.87069
3 3 2 24 1 o 0.1447 0.1416 0.00 0.85067
4 2 2 24 1 o 4.7758 3.7634 0.00 0.81446



# powder data simulated using PLATON:

data_cubic_1_ND_simulated_1.5482

_publcif_pd_cifplot 'simulated 2021-03-25'

