data_profile1

_pd_block_id      LaZn1173K


loop_
      _pd_proc_point_id                    
      _pd_proc_2theta_corrected             
      _pd_proc_intensity_net               
      _pd_calc_intensity_net               
      _pd_proc_ls_weight
1	10.03991	336	339.72	0.00298
2	10.08991	332	338.57999	0.00301
3	10.13991	334	337.44	0.00299
4	10.18991	336	336.29999	0.00298
5	10.23991	334	335.16	0.00299
6	10.28991	342	334.01999	0.00292
7	10.33991	341	332.88	0.00293
8	10.38991	332	331.73999	0.00301
9	10.43991	332	330.60001	0.00301
10	10.48991	322	329.45999	0.00311
11	10.53991	328	328.32999	0.00305
12	10.58991	323	327.19	0.0031
13	10.63991	328	326.04999	0.00305
14	10.68991	335	324.91	0.00299
15	10.73991	331	323.76999	0.00302
16	10.78991	325	322.63	0.00308
17	10.83991	333	321.48999	0.003
18	10.88991	312	320.35001	0.00321
19	10.93991	321	319.20999	0.00312
20	10.98991	320	318.07001	0.00313
21	11.03991	315	317.29999	0.00317
22	11.08991	322	316.76001	0.00311
23	11.13991	319	316.23001	0.00313
24	11.18991	318	315.70001	0.00314
25	11.23991	316	315.16	0.00316
26	11.28991	310	314.63	0.00323
27	11.33991	315	314.09	0.00317
28	11.38991	317	313.56	0.00315
29	11.43991	320	313.03	0.00313
30	11.48991	316	312.48999	0.00316
31	11.53991	310	311.95999	0.00323
32	11.58991	310	311.42001	0.00323
33	11.63991	315	310.89001	0.00317
34	11.68991	317	310.35001	0.00315
35	11.73991	305	309.82001	0.00328
36	11.78991	309	309.29001	0.00324
37	11.83991	301	308.75	0.00332
38	11.88991	310	308.22	0.00323
39	11.93991	308	307.67999	0.00325
40	11.98991	304	307.14999	0.00329
41	12.03991	312	306.60999	0.00321
42	12.08991	307	306.07999	0.00326
43	12.13991	306	305.54999	0.00327
44	12.18991	314	305.01001	0.00318
45	12.23991	303	304.48001	0.0033
46	12.28991	306	303.94	0.00327
47	12.33991	309	303.41	0.00324
48	12.38991	309	302.88	0.00324
49	12.43991	309	302.34	0.00324
50	12.48991	299	301.81	0.00334
51	12.53991	299	301.26999	0.00334
52	12.58991	303	300.73999	0.0033
53	12.63991	304	300.20001	0.00329
54	12.68991	299	299.64001	0.00334
55	12.73991	299	299.07999	0.00334
56	12.78991	302	298.51999	0.00331
57	12.83991	298	297.95999	0.00336
58	12.88991	301	297.39999	0.00332
59	12.93991	298	296.84	0.00336
60	12.98991	294	296.28	0.0034
61	13.03991	296	295.72	0.00338
62	13.08991	297	295.16	0.00337
63	13.13991	295	294.60001	0.00339
64	13.18991	294	294.04001	0.0034
65	13.23991	298	293.48001	0.00336
66	13.28991	291	292.92001	0.00344
67	13.33991	285	292.35999	0.00351
68	13.38991	298	291.79999	0.00336
69	13.43991	293	291.23999	0.00341
70	13.48991	284	290.67999	0.00352
71	13.53991	282	290.10999	0.00355
72	13.58991	285	289.54999	0.00351
73	13.63991	289	288.98999	0.00346
74	13.68991	277	288.42999	0.00361
75	13.73991	283	287.87	0.00353
76	13.78991	287	287.31	0.00348
77	13.83991	291	286.75	0.00344
78	13.88991	296	286.19	0.00338
79	13.93991	289	285.63	0.00346
80	13.98991	286	285.07001	0.0035
81	14.03991	285	284.51001	0.00351
82	14.08991	282	283.95001	0.00355
83	14.13991	285	283.39001	0.00351
84	14.18991	278	282.82999	0.0036
85	14.23991	280	282.22	0.00357
86	14.28991	286	281.62	0.0035
87	14.33991	288	281.01001	0.00347
88	14.38991	286	280.41	0.0035
89	14.43991	286	279.81	0.0035
90	14.48991	276	279.20001	0.00362
91	14.53991	284	278.60001	0.00352
92	14.58991	280	277.98999	0.00357
93	14.63991	280	277.39001	0.00357
94	14.68991	281	276.78	0.00356
95	14.73991	278	276.17999	0.0036
96	14.78991	275	275.57001	0.00364
97	14.83991	280	274.97	0.00357
98	14.88991	279	274.35999	0.00358
99	14.93991	280	273.76001	0.00357
100	14.98991	285	273.14999	0.00351
101	15.03991	273	272.54999	0.00366
102	15.08991	266	271.94	0.00376
103	15.13991	276	271.34	0.00362
104	15.18991	281	270.73001	0.00356
105	15.23991	279	270.13	0.00358
106	15.28991	270	269.53	0.0037
107	15.33991	260	268.92001	0.00385
108	15.38991	265	268.32001	0.00377
109	15.43991	264	267.73001	0.00379
110	15.48991	265	267.39001	0.00377
111	15.53991	271	267.04999	0.00369
112	15.58991	259	266.70999	0.00386
113	15.63991	261	266.37	0.00383
114	15.68991	272	266.04001	0.00368
115	15.73991	264	265.70001	0.00379
116	15.78991	267	265.35999	0.00375
117	15.83991	278	265.01999	0.0036
118	15.88991	262	264.67999	0.00382
119	15.93991	271	264.34	0.00369
120	15.98991	263	264.01001	0.0038
121	16.03991	260	263.67001	0.00385
122	16.08991	260	263.32999	0.00385
123	16.13991	265	262.98999	0.00377
124	16.18991	261	262.64999	0.00383
125	16.23991	260	262.31	0.00385
126	16.28991	268	261.98001	0.00373
127	16.33991	270	261.64001	0.0037
128	16.38991	268	261.29999	0.00373
129	16.43991	264	260.95999	0.00379
130	16.48991	254	260.62	0.00394
131	16.53991	259	260.28	0.00386
132	16.58991	262	259.95001	0.00382
133	16.63991	261	259.60999	0.00383
134	16.68991	262	259.26999	0.00382
135	16.73991	263	258.92999	0.0038
136	16.78991	262	258.59	0.00382
137	16.83991	259	258.26001	0.00386
138	16.88991	254	257.92001	0.00394
139	16.93991	257	257.57999	0.00389
140	16.98991	262	257.23999	0.00382
141	17.03991	260	256.89999	0.00385
142	17.08991	260	256.62	0.00385
143	17.13991	256	256.38	0.00391
144	17.18991	245	256.14999	0.00408
145	17.23991	253	255.92	0.00395
146	17.28991	265	255.69	0.00377
147	17.33991	259	255.46001	0.00386
148	17.38991	259	255.23	0.00386
149	17.43991	261	255	0.00383
150	17.48991	264	254.77	0.00379
151	17.53991	260	254.53	0.00385
152	17.58991	253	254.3	0.00395
153	17.63991	247	254.07001	0.00405
154	17.68991	258	253.84	0.00388
155	17.73991	263	253.61	0.0038
156	17.78991	255	253.38	0.00392
157	17.83991	257	253.14999	0.00389
158	17.88991	258	252.92	0.00388
159	17.93991	252	252.67999	0.00397
160	17.98991	256	252.45	0.00391
161	18.03991	257	252.22	0.00389
162	18.08991	249	251.99001	0.00402
163	18.13991	248	251.75999	0.00403
164	18.18991	248	251.53	0.00403
165	18.23991	251	251.84	0.00398
166	18.28991	256	251.63	0.00391
167	18.33991	259	251.42	0.00386
168	18.38991	250	251.22	0.004
169	18.43991	249	251.00999	0.00402
170	18.48991	252	250.81	0.00397
171	18.53991	257	250.61	0.00389
172	18.58991	259	250.42	0.00386
173	18.63991	259	250.22	0.00386
174	18.68991	254	250.03999	0.00394
175	18.73991	251	249.85001	0.00398
176	18.78991	247	249.67	0.00405
177	18.83991	247	249.49001	0.00405
178	18.88991	247	249.3	0.00405
179	18.93991	249	249.12	0.00402
180	18.98991	248	248.95	0.00403
181	19.03991	250	248.78999	0.004
182	19.08991	260	248.64999	0.00385
183	19.13991	257	248.53999	0.00389
184	19.18991	257	248.46001	0.00389
185	19.23991	253	248.45	0.00395
186	19.28991	257	248.53999	0.00389
187	19.33991	256	248.81	0.00391
188	19.38991	250	249.35001	0.004
189	19.43991	254	250.32001	0.00394
190	19.48991	263	251.92	0.0038
191	19.53991	261	254.41	0.00383
192	19.58991	258	257.98999	0.00388
193	19.63991	264	262.79999	0.00379
194	19.68991	259	268.76999	0.00386
195	19.73991	272	275.57999	0.00368
196	19.78991	278	282.54999	0.0036
197	19.83991	274	288.78	0.00365
198	19.88991	279	293.19	0.00358
199	19.93991	281	294.85001	0.00356
200	19.98991	284	293.29999	0.00352
201	20.03991	275	288.87	0.00364
202	20.08991	273	282.60001	0.00366
203	20.13991	274	275.60001	0.00365
204	20.18991	266	268.76999	0.00376
205	20.23991	264	262.63	0.00379
206	20.28991	256	257.38	0.00391
207	20.33991	258	253.11	0.00388
208	20.38991	253	249.75999	0.00395
209	20.43991	248	247.22	0.00403
210	20.48991	257	245.34	0.00389
211	20.53991	257	243.97	0.00389
212	20.58991	246	242.98	0.00407
213	20.63991	239	242.24001	0.00418
214	20.68991	236	241.66	0.00424
215	20.73991	245	241.17999	0.00408
216	20.78991	241	240.77	0.00415
217	20.83991	235	240.39999	0.00426
218	20.88991	238	240.05	0.0042
219	20.93991	240	239.73	0.00417
220	20.98991	240	239.42999	0.00417
221	21.03991	248	239.14	0.00403
222	21.08991	240	238.86	0.00417
223	21.13991	240	238.60001	0.00417
224	21.18991	240	238.34	0.00417
225	21.23991	243	238.10001	0.00412
226	21.28991	235	237.87	0.00426
227	21.33991	232	237.64999	0.00431
228	21.38991	235	237.44	0.00426
229	21.43991	244	237.23	0.0041
230	21.48991	242	237.19	0.00413
231	21.53991	230	237.17	0.00435
232	21.58991	239	237.16	0.00418
233	21.63991	240	237.16	0.00417
234	21.68991	236	237.17999	0.00424
235	21.73991	244	237.21001	0.0041
236	21.78991	240	237.25999	0.00417
237	21.83991	239	237.33	0.00418
238	21.88991	246	237.42	0.00407
239	21.93991	249	237.53999	0.00402
240	21.98991	249	237.69	0.00402
241	22.03991	244	237.87	0.0041
242	22.08991	242	238.10001	0.00413
243	22.13991	247	238.44	0.00405
244	22.18991	244	238.82001	0.0041
245	22.23991	244	239.33	0.0041
246	22.28991	243	240.06	0.00412
247	22.33991	253	241.11	0.00395
248	22.38991	252	242.71001	0.00397
249	22.43991	248	245.22	0.00403
250	22.48991	262	249.19	0.00382
251	22.53991	269	255.38	0.00372
252	22.58991	271	264.73001	0.00369
253	22.63991	273	278.19	0.00366
254	22.68991	288	296.48999	0.00347
255	22.73991	297	319.69	0.00337
256	22.78991	311	346.85999	0.00322
257	22.83991	336	375.78	0.00298
258	22.88991	352	403.06	0.00284
259	22.93991	376	424.42999	0.00266
260	22.98991	386	435.67999	0.00259
261	23.03991	385	434.10999	0.0026
262	23.08991	382	420.14001	0.00262
263	23.13991	371	397.35999	0.0027
264	23.18991	350	370.48999	0.00286
265	23.23991	338	343.42999	0.00296
266	23.28991	334	318.69	0.00299
267	23.33991	320	297.48999	0.00313
268	23.38991	295	280.29001	0.00339
269	23.43991	278	266.95999	0.0036
270	23.48991	270	257.09	0.0037
271	23.53991	256	250.07001	0.00391
272	23.58991	260	245.23	0.00385
273	23.63991	255	241.97	0.00392
274	23.68991	250	239.75999	0.004
275	23.73991	248	238.23	0.00403
276	23.78991	242	237.12	0.00413
277	23.83991	239	236.25999	0.00418
278	23.88991	242	235.56	0.00413
279	23.93991	240	234.97	0.00417
280	23.98991	234	234.45	0.00427
281	24.03991	230	233.99001	0.00435
282	24.08991	230	233.59	0.00435
283	24.13991	229	233.22	0.00437
284	24.18991	226	232.88	0.00442
285	24.23991	226	232.58	0.00442
286	24.28991	234	232.3	0.00427
287	24.33991	235	232.03999	0.00426
288	24.38991	231	231.8	0.00433
289	24.43991	232	231.62	0.00431
290	24.48991	226	231.5	0.00442
291	24.53991	235	231.39999	0.00426
292	24.58991	227	231.3	0.00441
293	24.63991	232	231.22	0.00431
294	24.68991	236	231.14	0.00424
295	24.73991	235	231.07001	0.00426
296	24.78991	234	231	0.00427
297	24.83991	237	230.94	0.00422
298	24.88991	237	230.89	0.00422
299	24.93991	229	230.84	0.00437
300	24.98991	228	230.78999	0.00439
301	25.03991	239	230.75	0.00418
302	25.08991	230	230.71001	0.00435
303	25.13991	230	230.67999	0.00435
304	25.18991	228	230.64	0.00439
305	25.23991	228	230.61	0.00439
306	25.28991	229	230.59	0.00437
307	25.33991	233	230.56	0.00429
308	25.38991	234	230.53	0.00427
309	25.43991	235	230.50999	0.00426
310	25.48991	226	230.49001	0.00442
311	25.53991	225	230.47	0.00444
312	25.58991	232	230.45	0.00431
313	25.63991	234	230.44	0.00427
314	25.68991	230	230.42	0.00435
315	25.73991	227	230.41	0.00441
316	25.78991	227	230.39999	0.00441
317	25.83991	230	230.38	0.00435
318	25.88991	228	230.37	0.00439
319	25.93991	240	230.36	0.00417
320	25.98991	240	230.35001	0.00417
321	26.03991	236	230.34	0.00424
322	26.08991	232	230.34	0.00431
323	26.13991	234	230.33	0.00427
324	26.18991	227	230.32001	0.00441
325	26.23991	226	230.32001	0.00442
326	26.28991	230	230.31	0.00435
327	26.33991	230	230.19	0.00435
328	26.38991	231	230.03999	0.00433
329	26.43991	231	229.88	0.00433
330	26.48991	231	229.73	0.00433
331	26.53991	232	229.58	0.00431
332	26.58991	230	229.42	0.00435
333	26.63991	236	229.27	0.00424
334	26.68991	229	229.12	0.00437
335	26.73991	230	228.97	0.00435
336	26.78991	234	228.82001	0.00427
337	26.83991	229	228.67	0.00437
338	26.88991	231	228.52	0.00433
339	26.93991	233	228.37	0.00429
340	26.98991	223	228.22	0.00448
341	27.03991	230	228.07001	0.00435
342	27.08991	232	227.92	0.00431
343	27.13991	227	227.77	0.00441
344	27.18991	229	227.63	0.00437
345	27.23991	224	227.48	0.00446
346	27.28991	229	227.33	0.00437
347	27.33991	223	227.19	0.00448
348	27.38991	221	227.03999	0.00452
349	27.43991	228	226.89999	0.00439
350	27.48991	227	226.75	0.00441
351	27.53991	231	226.61	0.00433
352	27.58991	221	226.46001	0.00452
353	27.63991	226	226.32001	0.00442
354	27.68991	228	226.17999	0.00439
355	27.73991	231	226.03	0.00433
356	27.78991	224	225.89	0.00446
357	27.83991	224	225.75	0.00446
358	27.88991	227	225.61	0.00441
359	27.93991	235	225.47	0.00426
360	27.98991	231	225.33	0.00433
361	28.03991	226	225.19	0.00442
362	28.08991	232	225.05	0.00431
363	28.13991	226	224.91	0.00442
364	28.18991	228	224.77	0.00439
365	28.23991	230	224.63	0.00435
366	28.28991	227	224.49001	0.00441
367	28.33991	228	224.36	0.00439
368	28.38991	225	224.22	0.00444
369	28.43991	229	224.09	0.00437
370	28.48991	225	223.95	0.00444
371	28.53991	217	223.82001	0.00461
372	28.58991	220	223.69	0.00455
373	28.63991	222	223.55	0.0045
374	28.68991	221	223.42	0.00452
375	28.73991	219	223.28999	0.00457
376	28.78991	225	223.16	0.00444
377	28.83991	226	223.2	0.00442
378	28.88991	226	223.25	0.00442
379	28.93991	222	223.31	0.0045
380	28.98991	227	223.36	0.00441
381	29.03991	222	223.42	0.0045
382	29.08991	219	223.48	0.00457
383	29.13991	220	223.53999	0.00455
384	29.18991	229	223.60001	0.00437
385	29.23991	231	223.67	0.00433
386	29.28991	226	223.73	0.00442
387	29.33991	221	223.91	0.00452
388	29.38991	217	223.97	0.00461
389	29.43991	226	224.03999	0.00442
390	29.48991	224	224.11	0.00446
391	29.53991	228	224.19	0.00439
392	29.58991	227	224.25999	0.00441
393	29.63991	225	224.34	0.00444
394	29.68991	232	224.42	0.00431
395	29.73991	226	224.5	0.00442
396	29.78991	221	224.59	0.00452
397	29.83991	226	224.67	0.00442
398	29.88991	229	224.75999	0.00437
399	29.93991	227	224.85001	0.00441
400	29.98991	230	224.95	0.00435
401	30.03991	225	225.05	0.00444
402	30.08991	223	225.14999	0.00448
403	30.13991	232	225.25999	0.00431
404	30.18991	233	225.37	0.00429
405	30.23991	227	225.49001	0.00441
406	30.28991	222	225.61	0.0045
407	30.33991	221	225.73	0.00452
408	30.38991	218	225.86	0.00459
409	30.43991	218	226	0.00459
410	30.48991	227	226.14999	0.00441
411	30.53991	217	226.3	0.00461
412	30.58991	223	226.46001	0.00448
413	30.63991	236	226.64	0.00424
414	30.68991	227	226.83	0.00441
415	30.73991	219	227.03999	0.00457
416	30.78991	227	227.25	0.00441
417	30.83991	224	227.48	0.00446
418	30.88991	233	227.72	0.00429
419	30.93991	236	227.98	0.00424
420	30.98991	227	228.25999	0.00441
421	31.03991	218	228.55	0.00459
422	31.08991	226	228.86	0.00442
423	31.13991	226	229.2	0.00442
424	31.18991	224	229.57001	0.00446
425	31.23991	230	229.96001	0.00435
426	31.28991	225	230.39	0.00444
427	31.33991	224	230.85001	0.00446
428	31.38991	228	231.36	0.00439
429	31.43991	229	231.91	0.00437
430	31.48991	228	232.52	0.00439
431	31.53991	235	233.2	0.00426
432	31.58991	234	233.94	0.00427
433	31.63991	237	234.77	0.00422
434	31.68991	230	235.69	0.00435
435	31.73991	236	236.73	0.00424
436	31.78991	229	237.91	0.00437
437	31.83991	233	239.25999	0.00429
438	31.88991	236	240.81	0.00424
439	31.93991	244	242.64999	0.0041
440	31.98991	250	244.89999	0.004
441	32.03991	248	247.75999	0.00403
442	32.08991	258	251.62	0.00388
443	32.13991	270	257.12	0.0037
444	32.18991	283	265.39001	0.00353
445	32.23991	297	278.19	0.00337
446	32.28991	318	298.10999	0.00314
447	32.33991	352	328.57999	0.00284
448	32.38991	381	373.57001	0.00262
449	32.43991	419	436.79001	0.00239
450	32.48991	474	520.38	0.00211
451	32.53991	547	623.38	0.00183
452	32.58991	653	740.20001	0.00153
453	32.63991	749	859.95001	0.00134
454	32.68991	852	966.89001	0.00117
455	32.73991	941	1043.19995	0.00106
456	32.78991	984	1074.14001	0.00102
457	32.83991	976	1053.39001	0.00102
458	32.88991	908	985.62	0.0011
459	32.93991	839	885.15002	0.00119
460	32.98991	748	770.28003	0.00134
461	33.03991	660	656.69	0.00152
462	33.08991	569	554.63	0.00176
463	33.13991	499	469.28	0.002
464	33.18991	431	402.04001	0.00232
465	33.23991	390	351.82001	0.00256
466	33.28991	345	316.06	0.0029
467	33.33991	316	291.64001	0.00316
468	33.38991	286	275.45001	0.0035
469	33.43991	258	264.85001	0.00388
470	33.48991	255	257.84	0.00392
471	33.53991	256	253.03	0.00391
472	33.58991	243	249.55	0.00412
473	33.63991	237	246.89	0.00422
474	33.68991	240	244.75	0.00417
475	33.73991	228	242.98	0.00439
476	33.78991	230	241.48	0.00435
477	33.83991	234	240.2	0.00427
478	33.88991	237	239.10001	0.00422
479	33.93991	225	238.14999	0.00444
480	33.98991	223	237.33	0.00448
481	34.03991	228	236.60001	0.00439
482	34.08991	228	235.97	0.00439
483	34.13991	224	235.42	0.00446
484	34.18991	227	234.92999	0.00441
485	34.23991	233	234.58	0.00429
486	34.28991	230	234.28999	0.00435
487	34.33991	223	234.03	0.00448
488	34.38991	220	233.81	0.00455
489	34.43991	225	233.63	0.00444
490	34.48991	224	233.47	0.00446
491	34.53991	223	233.34	0.00448
492	34.58991	227	233.23	0.00441
493	34.63991	223	233.14999	0.00448
494	34.68991	226	233.08	0.00442
495	34.73991	226	233.03	0.00442
496	34.78991	224	233	0.00446
497	34.83991	225	232.98	0.00444
498	34.88991	227	232.97	0.00441
499	34.93991	225	232.98	0.00444
500	34.98991	226	232.99001	0.00442
501	35.03991	226	233.02	0.00442
502	35.08991	229	233.05	0.00437
503	35.13991	232	233.10001	0.00431
504	35.18991	231	233.14999	0.00433
505	35.23991	235	233.21001	0.00426
506	35.28991	239	233.27	0.00418
507	35.33991	249	233.34	0.00402
508	35.38991	253	233.42	0.00395
509	35.43991	258	233.50999	0.00388
510	35.48991	258	233.60001	0.00388
511	35.53991	259	233.69	0.00386
512	35.58991	251	233.78999	0.00398
513	35.63991	256	233.89	0.00391
514	35.68991	256	234.00999	0.00391
515	35.73991	248	234.12	0.00403
516	35.78991	247	234.24001	0.00405
517	35.83991	243	234.37	0.00412
518	35.88991	232	234.49001	0.00431
519	35.93991	231	234.62	0.00433
520	35.98991	234	234.75999	0.00427
521	36.03991	246	234.89999	0.00407
522	36.08991	241	235.03999	0.00415
523	36.13991	240	235.19	0.00417
524	36.18991	248	235.34	0.00403
525	36.23991	245	235.49001	0.00408
526	36.28991	240	235.64999	0.00417
527	36.33991	235	235.82001	0.00426
528	36.38991	234	235.99001	0.00427
529	36.43991	237	236.16	0.00422
530	36.48991	233	236.34	0.00429
531	36.53991	234	236.52	0.00427
532	36.58991	235	236.71001	0.00426
533	36.63991	233	236.91	0.00429
534	36.68991	235	237.11	0.00426
535	36.73991	234	237.27	0.00427
536	36.78991	233	237.35001	0.00429
537	36.83991	233	237.42	0.00429
538	36.88991	230	237.50999	0.00435
539	36.93991	235	237.61	0.00426
540	36.98991	240	237.71001	0.00417
541	37.03991	246	237.83	0.00407
542	37.08991	239	237.96001	0.00418
543	37.13991	246	238.10001	0.00407
544	37.18991	247	238.25	0.00405
545	37.23991	257	238.42	0.00389
546	37.28991	249	238.61	0.00402
547	37.33991	244	238.81	0.0041
548	37.38991	253	239.03999	0.00395
549	37.43991	257	239.3	0.00389
550	37.48991	255	239.58	0.00392
551	37.53991	252	239.89999	0.00397
552	37.58991	251	240.25	0.00398
553	37.63991	244	240.64999	0.0041
554	37.68991	246	241.10001	0.00407
555	37.73991	238	241.62	0.0042
556	37.78991	239	242.22	0.00418
557	37.83991	239	242.92	0.00418
558	37.88991	237	243.78	0.00422
559	37.93991	234	244.87	0.00427
560	37.98991	242	246.34	0.00413
561	38.03991	247	248.47	0.00405
562	38.08991	246	251.71001	0.00407
563	38.13991	248	256.79999	0.00403
564	38.18991	258	264.81	0.00388
565	38.23991	269	277.13	0.00372
566	38.28991	285	295.23999	0.00351
567	38.33991	296	320.34	0.00338
568	38.38991	314	352.69	0.00318
569	38.43991	334	391.01001	0.00299
570	38.48991	389	432.01001	0.00257
571	38.53991	432	470.45001	0.00231
572	38.58991	456	499.60999	0.00219
573	38.63991	468	512.84998	0.00214
574	38.68991	465	506.67001	0.00215
575	38.73991	442	483.14001	0.00226
576	38.78991	417	448.60001	0.0024
577	38.83991	395	410.04999	0.00253
578	38.88991	355	372.82999	0.00282
579	38.93991	334	340.20999	0.00299
580	38.98991	308	313.73001	0.00325
581	39.03991	293	293.64001	0.00341
582	39.08991	278	279.37	0.0036
583	39.13991	263	269.85999	0.0038
584	39.18991	259	263.94	0.00386
585	39.23991	256	260.54001	0.00391
586	39.28991	247	258.79999	0.00405
587	39.33991	251	258.14999	0.00398
588	39.38991	253	258.20999	0.00395
589	39.43991	251	258.79999	0.00398
590	39.48991	254	259.82001	0.00394
591	39.53991	247	261.26999	0.00405
592	39.58991	248	263.20001	0.00403
593	39.63991	250	265.70999	0.004
594	39.68991	256	269.04001	0.00391
595	39.73991	265	273.63	0.00377
596	39.78991	286	280.28	0.0035
597	39.83991	295	290.39999	0.00339
598	39.88991	314	306.34	0.00318
599	39.93991	339	331.67001	0.00295
600	39.98991	375	371.32999	0.00267
601	40.03991	421	431.23001	0.00238
602	40.08991	486	517.13	0.00206
603	40.13991	574	632.78998	0.00174
604	40.18991	728	777.56	0.00137
605	40.23991	886	944.31	0.00113
606	40.28991	1062	1118.21997	9.4162E-4
607	40.33991	1250	1276.97998	8E-4
608	40.38991	1386	1394.17004	7.21501E-4
609	40.43991	1446	1448.35999	6.91563E-4
610	40.48991	1410	1433.43005	7.0922E-4
611	40.53991	1338	1358.33997	7.47384E-4
612	40.58991	1239	1237.90002	8.07103E-4
613	40.63991	1074	1088.64001	9.31099E-4
614	40.68991	926	929.14001	0.00108
615	40.73991	786	776.79999	0.00127
616	40.78991	658	643.48999	0.00152
617	40.83991	556	534.67999	0.0018
618	40.88991	469	450.81	0.00213
619	40.93991	401	389.26001	0.00249
620	40.98991	346	345.95999	0.00289
621	41.03991	306	316.51999	0.00327
622	41.08991	291	296.92999	0.00344
623	41.13991	282	283.95999	0.00355
624	41.18991	272	275.22	0.00368
625	41.23991	260	269.09	0.00385
626	41.28991	256	264.56	0.00391
627	41.33991	248	261.03	0.00403
628	41.38991	241	258.17001	0.00415
629	41.43991	238	255.77	0.0042
630	41.48991	240	253.72	0.00417
631	41.53991	237	251.96001	0.00422
632	41.58991	241	250.44	0.00415
633	41.63991	246	249.10001	0.00407
634	41.68991	245	247.94	0.00408
635	41.73991	246	246.89999	0.00407
636	41.78991	239	245.98	0.00418
637	41.83991	245	245.16	0.00408
638	41.88991	236	244.42999	0.00424
639	41.93991	241	243.77	0.00415
640	41.98991	238	243.17	0.0042
641	42.03991	244	242.63	0.0041
642	42.08991	241	242.14	0.00415
643	42.13991	243	241.7	0.00412
644	42.18991	239	241.28999	0.00418
645	42.23991	240	240.92	0.00417
646	42.28991	229	240.58	0.00437
647	42.33991	236	240.28	0.00424
648	42.38991	237	239.99001	0.00422
649	42.43991	239	239.73	0.00418
650	42.48991	232	239.5	0.00431
651	42.53991	235	239.28	0.00426
652	42.58991	232	239.05	0.00431
653	42.63991	226	238.81	0.00442
654	42.68991	231	238.59	0.00433
655	42.73991	225	238.38	0.00444
656	42.78991	229	238.19	0.00437
657	42.83991	236	238	0.00424
658	42.88991	233	237.83	0.00429
659	42.93991	239	237.67	0.00418
660	42.98991	245	237.52	0.00408
661	43.03991	247	237.38	0.00405
662	43.08991	248	237.24001	0.00403
663	43.13991	254	237.12	0.00394
664	43.18991	266	237.00999	0.00376
665	43.23991	264	236.89999	0.00379
666	43.28991	256	236.8	0.00391
667	43.33991	256	236.71001	0.00391
668	43.38991	266	236.63	0.00376
669	43.43991	271	236.55	0.00369
670	43.48991	259	236.48	0.00386
671	43.53991	260	236.42	0.00385
672	43.58991	257	236.36	0.00389
673	43.63991	260	236.31	0.00385
674	43.68991	264	236.27	0.00379
675	43.73991	263	236.23	0.0038
676	43.78991	265	236.2	0.00377
677	43.83991	251	236.17999	0.00398
678	43.88991	258	236.16	0.00388
679	43.93991	259	236.16	0.00386
680	43.98991	261	236.14999	0.00383
681	44.03991	264	236.16	0.00379
682	44.08991	259	236.17999	0.00386
683	44.13991	266	236.2	0.00376
684	44.18991	262	236.23	0.00382
685	44.23991	273	236.27	0.00366
686	44.28991	267	236.32001	0.00375
687	44.33991	270	236.38	0.0037
688	44.38991	276	236.45	0.00362
689	44.43991	266	236.53	0.00376
690	44.48991	269	236.62	0.00372
691	44.53991	263	236.73	0.0038
692	44.58991	269	236.85001	0.00372
693	44.63991	263	236.98	0.0038
694	44.68991	267	237.13	0.00375
695	44.73991	257	237.28999	0.00389
696	44.78991	252	237.47	0.00397
697	44.83991	243	237.67	0.00412
698	44.88991	253	237.89	0.00395
699	44.93991	252	238.14	0.00397
700	44.98991	249	238.39999	0.00402
701	45.03991	244	238.7	0.0041
702	45.08991	243	239.02	0.00412
703	45.13991	254	239.38	0.00394
704	45.18991	246	239.77	0.00407
705	45.23991	253	240.2	0.00395
706	45.28991	258	240.67999	0.00388
707	45.33991	265	241.2	0.00377
708	45.38991	266	241.78	0.00376
709	45.43991	257	242.42	0.00389
710	45.48991	254	243.12	0.00394
711	45.53991	250	243.91	0.004
712	45.58991	245	244.77	0.00408
713	45.63991	248	245.74001	0.00403
714	45.68991	241	246.82001	0.00415
715	45.73991	239	248.02	0.00418
716	45.78991	250	249.38	0.004
717	45.83991	237	250.89999	0.00422
718	45.88991	246	252.61	0.00407
719	45.93991	240	254.56	0.00417
720	45.98991	243	256.76001	0.00412
721	46.03991	242	259.28	0.00413
722	46.08991	252	262.17001	0.00397
723	46.13991	240	265.51001	0.00417
724	46.18991	244	269.39999	0.0041
725	46.23991	247	274.01999	0.00405
726	46.28991	259	279.63	0.00386
727	46.33991	274	286.70001	0.00365
728	46.38991	282	296.10999	0.00355
729	46.43991	299	309.51999	0.00334
730	46.48991	323	329.95001	0.0031
731	46.53991	356	362.57999	0.00281
732	46.58991	403	415.54001	0.00248
733	46.63991	480	500.31	0.00208
734	46.68991	572	630.81	0.00175
735	46.73991	728	820.35999	0.00137
736	46.78991	951	1076.48999	0.00105
737	46.83991	1250	1394.28003	8E-4
738	46.88991	1657	1751.04004	6.035E-4
739	46.93991	2099	2104	4.76417E-4
740	46.98991	2460	2392.90991	4.06504E-4
741	47.03991	2637	2551.12012	3.79219E-4
742	47.08991	2591	2532.75	3.85951E-4
743	47.13991	2372	2344.23999	4.21585E-4
744	47.18991	2061	2041.58997	4.85201E-4
745	47.23991	1736	1693.66003	5.76037E-4
746	47.28991	1403	1354.38	7.12758E-4
747	47.33991	1121	1056.92004	8.92061E-4
748	47.38991	876	816.71002	0.00114
749	47.43991	685	636.06	0.00146
750	47.48991	542	508.57999	0.00185
751	47.53991	459	423.41	0.00218
752	47.58991	403	368.81	0.00248
753	47.63991	365	334.48999	0.00274
754	47.68991	338	312.67001	0.00296
755	47.73991	316	298.20001	0.00316
756	47.78991	293	287.95001	0.00341
757	47.83991	283	280.17001	0.00353
758	47.88991	268	273.94	0.00373
759	47.93991	258	268.78	0.00388
760	47.98991	248	264.41	0.00403
761	48.03991	243	260.67001	0.00412
762	48.08991	239	257.42999	0.00418
763	48.13991	236	254.62	0.00424
764	48.18991	235	252.16	0.00426
765	48.23991	228	249.99001	0.00439
766	48.28991	229	248.08	0.00437
767	48.33991	231	246.37	0.00433
768	48.38991	229	244.84	0.00437
769	48.43991	225	243.47	0.00444
770	48.48991	232	242.23	0.00431
771	48.53991	227	241.10001	0.00441
772	48.58991	221	240.08	0.00452
773	48.63991	224	239.06	0.00446
774	48.68991	222	238.08	0.0045
775	48.73991	227	237.16	0.00441
776	48.78991	222	236.31	0.0045
777	48.83991	226	235.50999	0.00442
778	48.88991	231	234.75999	0.00433
779	48.93991	238	234.06	0.0042
780	48.98991	245	233.39999	0.00408
781	49.03991	248	232.77	0.00403
782	49.08991	238	232.17	0.0042
783	49.13991	238	231.61	0.0042
784	49.18991	239	231.08	0.00418
785	49.23991	241	230.57001	0.00415
786	49.28991	232	230.08	0.00431
787	49.33991	225	229.61	0.00444
788	49.38991	224	229.17	0.00446
789	49.43991	223	228.74001	0.00448
790	49.48991	231	228.33	0.00433
791	49.53991	228	227.94	0.00439
792	49.58991	223	227.56	0.00448
793	49.63991	220	227.2	0.00455
794	49.68991	217	226.85001	0.00461
795	49.73991	221	226.50999	0.00452
796	49.78991	226	226.19	0.00442
797	49.83991	219	225.88	0.00457
798	49.88991	224	225.58	0.00446
799	49.93991	219	225.28999	0.00457
800	49.98991	227	225.00999	0.00441
801	50.03991	226	224.75	0.00442
802	50.08991	222	224.5	0.0045
803	50.13991	219	224.25999	0.00457
804	50.18991	217	224.03999	0.00461
805	50.23991	218	223.83	0.00459
806	50.28991	220	223.64	0.00455
807	50.33991	217	223.46001	0.00461
808	50.38991	208	223.3	0.00481
809	50.43991	210	223.22	0.00476
810	50.48991	217	223.2	0.00461
811	50.53991	220	223.2	0.00455
812	50.58991	213	223.23	0.00469
813	50.63991	215	223.28999	0.00465
814	50.68991	218	223.41	0.00459
815	50.73991	217	223.58	0.00461
816	50.78991	227	223.84	0.00441
817	50.83991	220	224.23	0.00455
818	50.88991	226	224.83	0.00442
819	50.93991	225	225.82001	0.00444
820	50.98991	227	227.47	0.00441
821	51.03991	227	230.23	0.00441
822	51.08991	236	234.72	0.00424
823	51.13991	242	241.7	0.00413
824	51.18991	247	251.89	0.00405
825	51.23991	249	265.75	0.00402
826	51.28991	269	283.13	0.00372
827	51.33991	285	302.98001	0.00351
828	51.38991	307	323.13	0.00326
829	51.43991	321	340.28	0.00312
830	51.48991	321	350.53	0.00312
831	51.53991	319	351	0.00313
832	51.58991	303	341.73001	0.0033
833	51.63991	287	325.45001	0.00348
834	51.68991	277	305.78	0.00361
835	51.73991	269	285.92999	0.00372
836	51.78991	251	268.17999	0.00398
837	51.83991	234	253.7	0.00427
838	51.88991	223	242.82001	0.00448
839	51.93991	224	235.19	0.00446
840	51.98991	220	230.14	0.00455
841	52.03991	216	226.95	0.00463
842	52.08991	215	225.00999	0.00465
843	52.13991	218	223.86	0.00459
844	52.18991	221	223.2	0.00452
845	52.23991	214	222.87	0.00467
846	52.28991	216	222.78999	0.00463
847	52.33991	219	222.95	0.00457
848	52.38991	223	223.42	0.00448
849	52.43991	214	224.35001	0.00467
850	52.48991	231	226.03	0.00433
851	52.53991	237	228.92999	0.00422
852	52.58991	232	233.62	0.00431
853	52.63991	232	240.89999	0.00431
854	52.68991	243	251.60001	0.00412
855	52.73991	265	266.38	0.00377
856	52.78991	280	285.44	0.00357
857	52.83991	318	308	0.00314
858	52.88991	346	332.26001	0.00289
859	52.93991	370	355.12	0.0027
860	52.98991	390	372.95001	0.00256
861	53.03991	409	382.48001	0.00244
862	53.08991	393	381.45999	0.00254
863	53.13991	380	369.45999	0.00263
864	53.18991	360	348.82999	0.00278
865	53.23991	331	323.88	0.00302
866	53.28991	302	298.72	0.00331
867	53.33991	277	276.22	0.00361
868	53.38991	252	257.87	0.00397
869	53.43991	244	244.02	0.0041
870	53.48991	233	234.25999	0.00429
871	53.53991	219	227.74001	0.00457
872	53.58991	222	223.55	0.0045
873	53.63991	218	220.89999	0.00459
874	53.68991	214	219.17999	0.00467
875	53.73991	207	218.00999	0.00483
876	53.78991	209	217.16	0.00478
877	53.83991	214	216.49001	0.00467
878	53.88991	212	215.94	0.00472
879	53.93991	215	215.46001	0.00465
880	53.98991	212	215.03999	0.00472
881	54.03991	202	214.67	0.00495
882	54.08991	207	214.33	0.00483
883	54.13991	219	214.02	0.00457
884	54.18991	218	213.74001	0.00459
885	54.23991	212	213.48	0.00472
886	54.28991	212	213.24001	0.00472
887	54.33991	214	213.02	0.00467
888	54.38991	212	212.81	0.00472
889	54.43991	206	212.61	0.00485
890	54.48991	206	212.42	0.00485
891	54.53991	205	212.24001	0.00488
892	54.58991	210	212.07001	0.00476
893	54.63991	207	211.91	0.00483
894	54.68991	213	211.75	0.00469
895	54.73991	210	211.60001	0.00476
896	54.78991	209	211.46001	0.00478
897	54.83991	214	211.34	0.00467
898	54.88991	207	211.33	0.00483
899	54.93991	211	211.33	0.00474
900	54.98991	211	211.33	0.00474
901	55.03991	204	211.34	0.0049
902	55.08991	217	211.35001	0.00461
903	55.13991	214	211.36	0.00467
904	55.18991	201	211.38	0.00498
905	55.23991	205	211.39999	0.00488
906	55.28991	207	211.42	0.00483
907	55.33991	209	211.45	0.00478
908	55.38991	207	211.48	0.00483
909	55.43991	205	211.52	0.00488
910	55.48991	208	211.55	0.00481
911	55.53991	210	211.59	0.00476
912	55.58991	208	211.63	0.00481
913	55.63991	212	211.67999	0.00472
914	55.68991	211	211.73	0.00474
915	55.73991	222	211.78	0.0045
916	55.78991	215	211.84	0.00465
917	55.83991	216	211.89999	0.00463
918	55.88991	214	211.96001	0.00467
919	55.93991	217	212.03	0.00461
920	55.98991	219	212.10001	0.00457
921	56.03991	223	212.17999	0.00448
922	56.08991	219	212.25999	0.00457
923	56.13991	223	212.35001	0.00448
924	56.18991	218	212.44	0.00459
925	56.23991	219	212.53	0.00457
926	56.28991	213	212.64	0.00469
927	56.33991	214	212.75	0.00467
928	56.38991	216	212.87	0.00463
929	56.43991	211	213	0.00474
930	56.48991	215	213.13	0.00465
931	56.53991	218	213.28	0.00459
932	56.58991	213	213.42999	0.00469
933	56.63991	208	213.60001	0.00481
934	56.68991	212	213.78	0.00472
935	56.73991	212	213.97	0.00472
936	56.78991	212	214.17	0.00472
937	56.83991	207	214.39999	0.00483
938	56.88991	206	214.64	0.00485
939	56.93991	214	214.89999	0.00467
940	56.98991	208	215.19	0.00481
941	57.03991	210	215.50999	0.00476
942	57.08991	213	215.86	0.00469
943	57.13991	212	216.25	0.00472
944	57.18991	218	216.7	0.00459
945	57.23991	217	217.17999	0.00461
946	57.28991	219	217.73	0.00457
947	57.33991	216	218.33	0.00463
948	57.38991	209	219.00999	0.00478
949	57.43991	215	219.77	0.00465
950	57.48991	224	220.64	0.00446
951	57.53991	215	221.63	0.00465
952	57.58991	220	222.75999	0.00455
953	57.63991	223	224.08	0.00448
954	57.68991	225	225.63	0.00444
955	57.73991	223	227.48	0.00448
956	57.78991	226	229.77	0.00442
957	57.83991	229	232.75	0.00437
958	57.88991	232	236.89	0.00431
959	57.93991	246	243.08	0.00407
960	57.98991	259	252.85001	0.00386
961	58.03991	283	268.60001	0.00353
962	58.08991	303	293.70001	0.0033
963	58.13991	361	332.20001	0.00277
964	58.18991	435	388.03	0.0023
965	58.23991	510	463.57001	0.00196
966	58.28991	621	557.96997	0.00161
967	58.33991	755	665.53998	0.00132
968	58.38991	926	774.64001	0.00108
969	58.43991	1053	868.10999	9.49668E-4
970	58.48991	1104	927.56	9.05797E-4
971	58.53991	1097	941.60999	9.11577E-4
972	58.58991	1044	912.04999	9.57854E-4
973	58.63991	976	850.59998	0.00102
974	58.68991	879	769.90002	0.00114
975	58.73991	755	679.21997	0.00132
976	58.78991	647	586.71002	0.00155
977	58.83991	540	500.44	0.00185
978	58.88991	452	426.35001	0.00221
979	58.93991	379	366.94	0.00264
980	58.98991	343	322.01001	0.00292
981	59.03991	312	289.73999	0.00321
982	59.08991	277	267.59	0.00361
983	59.13991	257	252.94	0.00389
984	59.18991	245	243.45	0.00408
985	59.23991	235	237.3	0.00426
986	59.28991	240	233.21001	0.00417
987	59.33991	223	230.34	0.00448
988	59.38991	227	228.2	0.00441
989	59.43991	225	226.52	0.00444
990	59.48991	219	225.14999	0.00457
991	59.53991	219	224	0.00457
992	59.58991	219	223.03	0.00457
993	59.63991	222	222.19	0.0045
994	59.68991	222	221.46001	0.0045
995	59.73991	226	220.83	0.00442
996	59.78991	223	220.28999	0.00448
997	59.83991	217	219.81	0.00461
998	59.88991	224	219.39	0.00446
999	59.93991	219	219.02	0.00457
1000	59.98991	216	218.69	0.00463
1001	60.03991	214	218.39999	0.00467
1002	60.08991	220	218.14999	0.00455
1003	60.13991	219	217.92	0.00457
1004	60.18991	216	217.72	0.00463
1005	60.23991	218	217.55	0.00459
1006	60.28991	215	217.39	0.00465
1007	60.33991	219	217.25999	0.00457
1008	60.38991	219	217.14	0.00457
1009	60.43991	211	217.03	0.00474
1010	60.48991	209	216.94	0.00478
1011	60.53991	222	216.87	0.0045
1012	60.58991	224	216.8	0.00446
1013	60.63991	219	216.75	0.00457
1014	60.68991	212	216.71001	0.00472
1015	60.73991	204	216.67	0.0049
1016	60.78991	206	216.60001	0.00485
1017	60.83991	217	216.53999	0.00461
1018	60.88991	215	216.48	0.00465
1019	60.93991	205	216.44	0.00488
1020	60.98991	218	216.41	0.00459
1021	61.03991	220	216.38	0.00455
1022	61.08991	217	216.36	0.00461
1023	61.13991	211	216.36	0.00474
1024	61.18991	210	216.36	0.00476
1025	61.23991	215	216.37	0.00465
1026	61.28991	215	216.39999	0.00465
1027	61.33991	213	216.42999	0.00469
1028	61.38991	216	216.48	0.00463
1029	61.43991	211	216.55	0.00474
1030	61.48991	212	216.63	0.00472
1031	61.53991	216	216.74001	0.00463
1032	61.58991	226	216.87	0.00442
1033	61.63991	207	217.02	0.00483
1034	61.68991	213	217.22	0.00469
1035	61.73991	219	217.50999	0.00457
1036	61.78991	213	217.92	0.00469
1037	61.83991	211	218.42999	0.00474
1038	61.88991	216	219.10001	0.00463
1039	61.93991	221	220.06	0.00452
1040	61.98991	218	221.53999	0.00459
1041	62.03991	215	223.89	0.00465
1042	62.08991	219	227.64999	0.00457
1043	62.13991	220	233.49001	0.00455
1044	62.18991	229	242.10001	0.00437
1045	62.23991	251	253.96001	0.00398
1046	62.28991	269	269.06	0.00372
1047	62.33991	277	286.56	0.00361
1048	62.38991	291	304.60001	0.00344
1049	62.43991	300	320.26001	0.00333
1050	62.48991	302	330.29999	0.00331
1051	62.53991	301	332.5	0.00332
1052	62.58991	297	326.79001	0.00337
1053	62.63991	275	314.88	0.00364
1054	62.68991	263	299.35001	0.0038
1055	62.73991	259	282.69	0.00386
1056	62.78991	251	266.95001	0.00398
1057	62.83991	241	253.47	0.00415
1058	62.88991	235	242.87	0.00426
1059	62.93991	229	235.08	0.00437
1060	62.98991	223	229.69	0.00448
1061	63.03991	232	226.13	0.00431
1062	63.08991	228	223.88	0.00439
1063	63.13991	220	222.48	0.00455
1064	63.18991	220	221.62	0.00455
1065	63.23991	219	221.07001	0.00457
1066	63.28991	211	220.72	0.00474
1067	63.33991	223	220.48	0.00448
1068	63.38991	224	220.31	0.00446
1069	63.43991	226	220.19	0.00442
1070	63.48991	224	220.10001	0.00446
1071	63.53991	218	220.05	0.00459
1072	63.58991	221	220.02	0.00452
1073	63.63991	217	220.00999	0.00461
1074	63.68991	221	220.00999	0.00452
1075	63.73991	214	220.02	0.00467
1076	63.78991	227	220.05	0.00441
1077	63.83991	222	220.09	0.0045
1078	63.88991	214	220.14	0.00467
1079	63.93991	218	220.19	0.00459
1080	63.98991	218	220.25	0.00459
1081	64.03991	226	220.3	0.00442
1082	64.08991	226	220.32001	0.00442
1083	64.13991	222	220.35001	0.0045
1084	64.18991	224	220.39	0.00446
1085	64.23991	215	220.42999	0.00465
1086	64.28991	224	220.47	0.00446
1087	64.33991	215	220.50999	0.00465
1088	64.38991	206	220.56	0.00485
1089	64.43991	215	220.61	0.00465
1090	64.48991	217	220.67	0.00461
1091	64.53991	216	220.72	0.00463
1092	64.58991	221	220.78	0.00452
1093	64.63991	231	220.84	0.00433
1094	64.68991	227	220.91	0.00441
1095	64.73991	239	220.98	0.00418
1096	64.78991	252	221.03999	0.00397
1097	64.83991	258	221.12	0.00388
1098	64.88991	262	221.08	0.00382
1099	64.93991	269	221.16	0.00372
1100	64.98991	280	221.24001	0.00357
1101	65.03991	275	221.32001	0.00364
1102	65.08991	263	221.41	0.0038
1103	65.13991	252	221.49001	0.00397
1104	65.18991	240	221.58	0.00417
1105	65.23991	241	221.67	0.00415
1106	65.28991	229	221.77	0.00437
1107	65.33991	234	221.86	0.00427
1108	65.38991	231	221.96001	0.00433
1109	65.43991	219	222.06	0.00457
1110	65.48991	219	222.17	0.00457
1111	65.53991	218	222.28	0.00459
1112	65.58991	224	222.39	0.00446
1113	65.63991	216	222.50999	0.00463
1114	65.68991	220	222.62	0.00455
1115	65.73991	225	222.75	0.00444
1116	65.78991	233	222.87	0.00429
1117	65.83991	222	223.00999	0.0045
1118	65.88991	219	223.14999	0.00457
1119	65.93991	224	223.33	0.00446
1120	65.98991	221	223.52	0.00452
1121	66.03991	221	223.71001	0.00452
1122	66.08991	230	223.91	0.00435
1123	66.13991	229	224.11	0.00437
1124	66.18991	236	224.32001	0.00424
1125	66.23991	232	224.53999	0.00431
1126	66.28991	234	224.77	0.00427
1127	66.33991	235	225.00999	0.00426
1128	66.38991	245	225.25999	0.00408
1129	66.43991	245	225.50999	0.00408
1130	66.48991	253	225.78	0.00395
1131	66.53991	252	226.06	0.00397
1132	66.58991	252	226.35001	0.00397
1133	66.63991	254	226.64999	0.00394
1134	66.68991	254	226.98	0.00394
1135	66.73991	256	227.31	0.00391
1136	66.78991	253	227.67	0.00395
1137	66.83991	246	228.05	0.00407
1138	66.88991	246	228.45	0.00407
1139	66.93991	248	228.88	0.00403
1140	66.98991	242	229.33	0.00413
1141	67.03991	240	229.82001	0.00417
1142	67.08991	236	230.34	0.00424
1143	67.13991	235	230.89999	0.00426
1144	67.18991	229	231.50999	0.00437
1145	67.23991	242	232.17	0.00413
1146	67.28991	229	232.89	0.00437
1147	67.33991	239	233.67	0.00418
1148	67.38991	233	234.52	0.00429
1149	67.43991	234	235.47	0.00427
1150	67.48991	232	236.52	0.00431
1151	67.53991	242	237.67999	0.00413
1152	67.58991	233	238.98	0.00429
1153	67.63991	237	240.44	0.00422
1154	67.68991	237	242.09	0.00422
1155	67.73991	231	243.97	0.00433
1156	67.78991	241	246.13	0.00415
1157	67.83991	239	248.63	0.00418
1158	67.88991	239	251.55	0.00418
1159	67.93991	252	255.03999	0.00397
1160	67.98991	252	259.34	0.00397
1161	68.03991	261	264.89999	0.00383
1162	68.08991	259	272.63	0.00386
1163	68.13991	263	284.17999	0.0038
1164	68.18991	280	302.41	0.00357
1165	68.23991	308	331.76999	0.00325
1166	68.28991	346	378.26001	0.00289
1167	68.33991	405	448.79001	0.00247
1168	68.38991	496	549.45001	0.00202
1169	68.43991	632	683.33002	0.00158
1170	68.48991	815	848.25	0.00123
1171	68.53991	1012	1034.45996	9.88142E-4
1172	68.58991	1225	1223.33997	8.16327E-4
1173	68.63991	1371	1390.16003	7.29395E-4
1174	68.68991	1490	1516.67004	6.71141E-4
1175	68.73991	1588	1600.70996	6.29723E-4
1176	68.78991	1672	1644.44995	5.98086E-4
1177	68.83991	1689	1637.98999	5.92066E-4
1178	68.88991	1660	1562.30005	6.0241E-4
1179	68.93991	1501	1412.43994	6.66223E-4
1180	68.98991	1287	1211.77002	7.77001E-4
1181	69.03991	1066	996.59003	9.38086E-4
1182	69.08991	853	796.69	0.00117
1183	69.13991	682	629.77002	0.00147
1184	69.18991	547	502.41	0.00183
1185	69.23991	451	412.69	0.00222
1186	69.28991	374	353.72	0.00267
1187	69.33991	350	316.92001	0.00286
1188	69.38991	316	294.53	0.00316
1189	69.43991	305	280.75	0.00328
1190	69.48991	295	271.85001	0.00339
1191	69.53991	275	265.64001	0.00364
1192	69.58991	275	260.98999	0.00364
1193	69.63991	266	257.29001	0.00376
1194	69.68991	260	254.25999	0.00385
1195	69.73991	258	251.72	0.00388
1196	69.78991	261	249.57001	0.00383
1197	69.83991	258	247.73	0.00388
1198	69.88991	256	246.14999	0.00391
1199	69.93991	251	244.78	0.00398
1200	69.98991	266	243.59	0.00376
1201	70.03991	257	242.56	0.00389
1202	70.08991	280	241.66	0.00357
1203	70.13991	294	240.88	0.0034
1204	70.18991	293	240.19	0.00341
1205	70.23991	277	239.58	0.00361
1206	70.28991	274	239.05	0.00365
1207	70.33991	260	238.59	0.00385
1208	70.38991	249	238.17	0.00402
1209	70.43991	244	237.82001	0.0041
1210	70.48991	234	237.52	0.00427
1211	70.53991	227	237.25	0.00441
1212	70.58991	229	237.03	0.00437
1213	70.63991	230	236.84	0.00435
1214	70.68991	236	236.67999	0.00424
1215	70.73991	231	236.35001	0.00433
1216	70.78991	227	236.03	0.00441
1217	70.83991	225	235.73	0.00444
1218	70.88991	231	235.47	0.00433
1219	70.93991	231	235.23	0.00433
1220	70.98991	230	235.02	0.00435
1221	71.03991	234	234.84	0.00427
1222	71.08991	228	234.69	0.00439
1223	71.13991	230	234.57001	0.00435
1224	71.18991	233	234.49001	0.00429
1225	71.23991	237	234.44	0.00422
1226	71.28991	234	234.42999	0.00427
1227	71.33991	231	234.47	0.00433
1228	71.38991	239	234.56	0.00418
1229	71.43991	240	234.72	0.00417
1230	71.48991	230	234.95	0.00435
1231	71.53991	235	235.28	0.00426
1232	71.58991	241	235.74001	0.00415
1233	71.63991	231	236.39	0.00433
1234	71.68991	246	237.36	0.00407
1235	71.73991	248	238.89	0.00403
1236	71.78991	245	241.42999	0.00408
1237	71.83991	251	245.77	0.00398
1238	71.88991	255	253.07001	0.00392
1239	71.93991	259	264.81	0.00386
1240	71.98991	267	282.5	0.00375
1241	72.03991	287	307.14001	0.00348
1242	72.08991	310	338.51999	0.00323
1243	72.13991	352	374.54999	0.00284
1244	72.18991	391	410.89999	0.00256
1245	72.23991	419	441.12	0.00239
1246	72.28991	448	458.76001	0.00223
1247	72.33991	453	461.60999	0.00221
1248	72.38991	437	452.54001	0.00229
1249	72.43991	442	435.70999	0.00226
1250	72.48991	418	413.92999	0.00239
1251	72.53991	389	388.98001	0.00257
1252	72.58991	378	362.10001	0.00265
1253	72.63991	348	334.89999	0.00287
1254	72.68991	318	309.53	0.00314
1255	72.73991	287	287.75	0.00348
1256	72.78991	272	270.39999	0.00368
1257	72.83991	256	257.51001	0.00391
1258	72.88991	253	248.62	0.00395
1259	72.93991	239	242.98	0.00418
1260	72.98991	237	239.89	0.00422
1261	73.03991	238	238.87	0.0042
1262	73.08991	233	239.8	0.00429
1263	73.13991	235	242.84	0.00426
1264	73.18991	243	248.34	0.00412
1265	73.23991	251	256.51999	0.00398
1266	73.28991	260	267.17001	0.00385
1267	73.33991	274	279.37	0.00365
1268	73.38991	288	291.35999	0.00347
1269	73.43991	303	300.57999	0.0033
1270	73.48991	315	304.60999	0.00317
1271	73.53991	315	302.78	0.00317
1272	73.58991	307	296.64001	0.00326
1273	73.63991	297	288.62	0.00337
1274	73.68991	293	280.67001	0.00341
1275	73.73991	293	273.78	0.00341
1276	73.78991	272	267.79999	0.00368
1277	73.83991	273	261.92001	0.00366
1278	73.88991	273	255.61	0.00366
1279	73.93991	267	249.07001	0.00375
1280	73.98991	256	242.84	0.00391
1281	74.03991	241	237.39999	0.00415
1282	74.08991	237	233	0.00422
1283	74.13991	234	229.67999	0.00427
1284	74.18991	236	227.33	0.00424
1285	74.23991	232	225.73	0.00431
1286	74.28991	235	224.66	0.00426
1287	74.33991	230	223.91	0.00435
1288	74.38991	233	223.36	0.00429
1289	74.43991	224	222.92	0.00446
1290	74.48991	223	222.55	0.00448
1291	74.53991	227	222.23	0.00441
1292	74.58991	225	221.92999	0.00444
1293	74.63991	217	221.64999	0.00461
1294	74.68991	217	221.39999	0.00461
1295	74.73991	214	221.14999	0.00467
1296	74.78991	221	220.92999	0.00452
1297	74.83991	212	220.71001	0.00472
1298	74.88991	218	220.5	0.00459
1299	74.93991	227	220.35001	0.00441
1300	74.98991	223	220.39	0.00448
1301	75.03991	219	220.42999	0.00457
1302	75.08991	227	220.48	0.00441
1303	75.13991	223	220.53	0.00448
1304	75.18991	218	220.59	0.00459
1305	75.23991	222	220.64999	0.0045
1306	75.28991	224	220.72	0.00446
1307	75.33991	224	220.78	0.00446
1308	75.38991	216	220.85001	0.00463
1309	75.43991	224	220.91	0.00446
1310	75.48991	219	220.99001	0.00457
1311	75.53991	223	221.08	0.00448
1312	75.58991	228	221.16	0.00439
1313	75.63991	222	221.25	0.0045
1314	75.68991	229	221.34	0.00437
1315	75.73991	226	221.44	0.00442
1316	75.78991	222	221.53999	0.0045
1317	75.83991	219	221.64	0.00457
1318	75.88991	211	221.75	0.00474
1319	75.93991	229	221.86	0.00437
1320	75.98991	222	221.97	0.0045
1321	76.03991	233	222.09	0.00429
1322	76.08991	233	222.21001	0.00429
1323	76.13991	217	222.33	0.00461
1324	76.18991	224	222.46001	0.00446
1325	76.23991	218	222.59	0.00459
1326	76.28991	220	222.72	0.00455
1327	76.33991	221	222.86	0.00452
1328	76.38991	230	223	0.00435
1329	76.43991	224	223.14999	0.00446
1330	76.48991	218	223.31	0.00459
1331	76.53991	220	223.47	0.00455
1332	76.58991	225	223.64	0.00444
1333	76.63991	218	223.82001	0.00459
1334	76.68991	215	224.00999	0.00465
1335	76.73991	215	224.2	0.00465
1336	76.78991	216	224.41	0.00463
1337	76.83991	228	224.63	0.00439
1338	76.88991	223	224.87	0.00448
1339	76.93991	221	225.12	0.00452
1340	76.98991	224	225.39	0.00446
1341	77.03991	219	225.67999	0.00457
1342	77.08991	224	226	0.00446
1343	77.13991	224	226.34	0.00446
1344	77.18991	217	226.73	0.00461
1345	77.23991	221	227.22	0.00452
1346	77.28991	222	227.78	0.0045
1347	77.33991	227	228.39	0.00441
1348	77.38991	224	229.08	0.00446
1349	77.43991	227	229.85001	0.00441
1350	77.48991	226	230.74001	0.00442
1351	77.53991	225	231.77	0.00444
1352	77.58991	220	233.00999	0.00455
1353	77.63991	229	234.59	0.00437
1354	77.68991	233	236.74001	0.00429
1355	77.73991	225	239.94	0.00444
1356	77.78991	231	244.98	0.00433
1357	77.83991	237	253.16	0.00422
1358	77.88991	245	266.26999	0.00408
1359	77.93991	258	286.41	0.00388
1360	77.98991	271	315.54001	0.00369
1361	78.03991	294	354.70999	0.0034
1362	78.08991	334	403.20001	0.00299
1363	78.13991	366	457.39001	0.00273
1364	78.18991	409	510.31	0.00244
1365	78.23991	431	553.40997	0.00232
1366	78.28991	472	580.33002	0.00212
1367	78.33991	479	587.10999	0.00209
1368	78.38991	473	570.37	0.00211
1369	78.43991	446	530.76001	0.00224
1370	78.48991	404	476.42001	0.00248
1371	78.53991	367	418.60999	0.00272
1372	78.58991	327	366.04999	0.00306
1373	78.63991	302	323.42999	0.00331
1374	78.68991	286	292	0.0035
1375	78.73991	267	270.70001	0.00375
1376	78.78991	252	257.25	0.00397
1377	78.83991	244	249.17999	0.0041
1378	78.88991	245	244.45	0.00408
1379	78.93991	240	241.63	0.00417
1380	78.98991	246	239.85001	0.00407
1381	79.03991	238	238.64	0.0042
1382	79.08991	242	237.75	0.00413
1383	79.13991	246	237.08	0.00407
1384	79.18991	248	236.55	0.00403
1385	79.23991	246	236.14	0.00407
1386	79.28991	256	235.82001	0.00391
1387	79.33991	257	235.58	0.00389
1388	79.38991	253	235.39	0.00395
1389	79.43991	258	235.25999	0.00388
1390	79.48991	244	235.17	0.0041
1391	79.53991	243	235.11	0.00412
1392	79.58991	242	235.08	0.00413
1393	79.63991	251	235.09	0.00398
1394	79.68991	243	235.11	0.00412
1395	79.73991	234	235.16	0.00427
1396	79.78991	235	235.22	0.00426
1397	79.83991	235	235.3	0.00426
1398	79.88991	235	235.39999	0.00426
1399	79.93991	234	235.50999	0.00427
1400	79.98991	235	235.63	0.00426
1401	80.03991	234	235.75999	0.00427
1402	80.08991	239	235.91	0.00418
1403	80.13991	235	236.06	0.00426
1404	80.18991	230	236.23	0.00435
1405	80.23991	234	236.39999	0.00427
1406	80.28991	234	236.59	0.00427
1407	80.33991	235	236.78	0.00426
1408	80.38991	234	236.99001	0.00427
1409	80.43991	240	237.21001	0.00417
1410	80.48991	235	237.42999	0.00426
1411	80.53991	236	237.5	0.00424
1412	80.58991	238	237.59	0.0042
1413	80.63991	235	237.69	0.00426
1414	80.68991	234	237.81	0.00427
1415	80.73991	244	237.95	0.0041
1416	80.78991	244	238.11	0.0041
1417	80.83991	244	238.31	0.0041
1418	80.88991	240	238.53999	0.00417
1419	80.93991	246	238.81	0.00407
1420	80.98991	243	239.14	0.00412
1421	81.03991	232	239.53999	0.00431
1422	81.08991	242	240.06	0.00413
1423	81.13991	252	240.75	0.00397
1424	81.18991	237	241.78999	0.00422
1425	81.23991	241	243.47	0.00415
1426	81.28991	246	246.33	0.00407
1427	81.33991	258	251.19	0.00388
1428	81.38991	253	259.10999	0.00395
1429	81.43991	258	271.13	0.00388
1430	81.48991	278	287.79999	0.0036
1431	81.53991	288	308.57001	0.00347
1432	81.58991	332	331.31	0.00301
1433	81.63991	348	352	0.00287
1434	81.68991	360	365.12	0.00278
1435	81.73991	362	365.98001	0.00276
1436	81.78991	356	354.28	0.00281
1437	81.83991	338	334.48999	0.00296
1438	81.88991	308	312.17999	0.00325
1439	81.93991	291	291.54001	0.00344
1440	81.98991	273	274.91	0.00366
1441	82.03991	258	263	0.00388
1442	82.08991	253	255.34	0.00395
1443	82.13991	243	250.94	0.00412
1444	82.18991	238	248.77	0.0042
1445	82.23991	236	248.07001	0.00424
1446	82.28991	248	248.42999	0.00403
1447	82.33991	251	249.84	0.00398
1448	82.38991	248	252.69	0.00403
1449	82.43991	251	257.79001	0.00398
1450	82.48991	262	266.39001	0.00382
1451	82.53991	279	280.01999	0.00358
1452	82.58991	299	300.17001	0.00334
1453	82.63991	333	327.64999	0.003
1454	82.68991	373	361.85999	0.00268
1455	82.73991	420	400.09	0.00238
1456	82.78991	474	437.45999	0.00211
1457	82.83991	511	468.20999	0.00196
1458	82.88991	551	487.34	0.00181
1459	82.93991	544	492.48999	0.00184
1460	82.98991	518	485.81	0.00193
1461	83.03991	513	471.70001	0.00195
1462	83.08991	492	452.32999	0.00203
1463	83.13991	461	427.12	0.00217
1464	83.18991	423	396.23999	0.00236
1465	83.23991	379	362.92999	0.00264
1466	83.28991	353	331.39001	0.00283
1467	83.33991	312	304.48001	0.00321
1468	83.38991	290	283.48001	0.00345
1469	83.43991	273	268.35999	0.00366
1470	83.48991	255	258.23999	0.00392
1471	83.53991	252	251.84	0.00397
1472	83.58991	248	247.94	0.00403
1473	83.63991	239	245.53999	0.00418
1474	83.68991	246	244	0.00407
1475	83.73991	246	242.92999	0.00407
1476	83.78991	245	242.14	0.00408
1477	83.83991	244	241.5	0.0041
1478	83.88991	240	240.98	0.00417
1479	83.93991	235	240.55	0.00426
1480	83.98991	231	240.17999	0.00433
1481	84.03991	237	239.87	0.00422
1482	84.08991	240	239.60001	0.00417
1483	84.13991	238	239.37	0.0042
1484	84.18991	240	239.17	0.00417
1485	84.23991	238	239	0.0042
1486	84.28991	239	238.85001	0.00418
1487	84.33991	238	238.72	0.0042
1488	84.38991	237	238.61	0.00422
1489	84.43991	231	238.50999	0.00433
1490	84.48991	237	238.41	0.00422
1491	84.53991	237	238.33	0.00422
1492	84.58991	235	238.25999	0.00426
1493	84.63991	242	238.19	0.00413
1494	84.68991	242	238.14	0.00413
1495	84.73991	232	238.09	0.00431
1496	84.78991	236	238.02	0.00424
1497	84.83991	236	237.99001	0.00424
1498	84.88991	236	237.97	0.00424
1499	84.93991	240	237.95	0.00417
1500	84.98991	235	237.94	0.00426
1501	85.03991	239	237.88	0.00418
1502	85.08991	246	237.88	0.00407
1503	85.13991	235	237.89	0.00426
1504	85.18991	244	237.89999	0.0041
1505	85.23991	237	237.92	0.00422
1506	85.28991	244	237.94	0.0041
1507	85.33991	240	237.97	0.00417
1508	85.38991	238	238.00999	0.0042
1509	85.43991	236	238.05	0.00424
1510	85.48991	239	238.10001	0.00418
1511	85.53991	240	238.16	0.00417
1512	85.58991	247	238.22	0.00405
1513	85.63991	247	238.3	0.00405
1514	85.68991	254	238.38	0.00394
1515	85.73991	254	238.47	0.00394
1516	85.78991	253	238.57001	0.00395
1517	85.83991	251	238.69	0.00398
1518	85.88991	256	238.82001	0.00391
1519	85.93991	261	238.96001	0.00383
1520	85.98991	257	239.12	0.00389
1521	86.03991	252	239.3	0.00397
1522	86.08991	255	239.5	0.00392
1523	86.13991	256	239.73	0.00391
1524	86.18991	255	239.98	0.00392
1525	86.23991	251	240.27	0.00398
1526	86.28991	259	240.59	0.00386
1527	86.33991	261	240.96001	0.00383
1528	86.38991	256	241.39	0.00391
1529	86.43991	253	241.87	0.00395
1530	86.48991	251	242.42999	0.00398
1531	86.53991	245	243.08	0.00408
1532	86.58991	251	243.84	0.00398
1533	86.63991	246	244.75	0.00407
1534	86.68991	247	245.83	0.00405
1535	86.73991	249	247.16	0.00402
1536	86.78991	253	248.87	0.00395
1537	86.83991	253	251.21001	0.00395
1538	86.88991	248	254.74001	0.00403
1539	86.93991	264	260.51999	0.00379
1540	86.98991	269	270.41	0.00372
1541	87.03991	275	287.26001	0.00364
1542	87.08991	311	314.69	0.00322
1543	87.13991	348	356.07001	0.00287
1544	87.18991	398	412.87	0.00251
1545	87.23991	466	482.60999	0.00215
1546	87.28991	565	557.17999	0.00177
1547	87.33991	645	622.34998	0.00155
1548	87.38991	687	659.96997	0.00146
1549	87.43991	690	657.54999	0.00145
1550	87.48991	650	619.90997	0.00154
1551	87.53991	578	565.90002	0.00173
1552	87.58991	529	515.22998	0.00189
1553	87.63991	477	481.01001	0.0021
1554	87.68991	458	467.88	0.00218
1555	87.73991	452	472.20999	0.00221
1556	87.78991	460	483.60999	0.00217
1557	87.83991	466	488.23999	0.00215
1558	87.88991	441	475.5	0.00227
1559	87.93991	424	444.94	0.00236
1560	87.98991	392	404.34	0.00255
1561	88.03991	352	362.57999	0.00284
1562	88.08991	308	325.88	0.00325
1563	88.13991	286	297.29999	0.0035
1564	88.18991	274	277.17001	0.00365
1565	88.23991	266	264.13	0.00376
1566	88.28991	252	256.16	0.00397
1567	88.33991	249	251.41	0.00402
1568	88.38991	245	248.5	0.00408
1569	88.43991	246	246.60001	0.00407
1570	88.48991	240	245.24001	0.00417
1571	88.53991	240	244.2	0.00417
1572	88.58991	241	243.35001	0.00415
1573	88.63991	239	242.64	0.00418
1574	88.68991	238	242.03999	0.0042
1575	88.73991	246	241.52	0.00407
1576	88.78991	247	241.08	0.00405
1577	88.83991	236	240.69	0.00424
1578	88.88991	248	240.36	0.00403
1579	88.93991	241	240.06	0.00415
1580	88.98991	239	239.81	0.00418
1581	89.03991	241	239.58	0.00415
1582	89.08991	236	239.38	0.00424
1583	89.13991	233	239.21001	0.00429
1584	89.18991	234	239.05	0.00427
1585	89.23991	234	238.92	0.00427
1586	89.28991	243	238.8	0.00412
1587	89.33991	231	238.69	0.00433
1588	89.38991	244	238.60001	0.0041
1589	89.43991	243	238.53999	0.00412
1590	89.48991	230	238.53	0.00435
1591	89.53991	239	238.53	0.00418
1592	89.58991	236	238.55	0.00424
1593	89.63991	229	238.57001	0.00437
1594	89.68991	234	238.61	0.00427
1595	89.73991	236	238.67	0.00424
1596	89.78991	236	238.74001	0.00424
1597	89.83991	238	238.82001	0.0042
1598	89.88991	235	238.92999	0.00426
1599	89.93991	243	239.05	0.00412
1600	89.98991	229	239.19	0.00437
1601	90.03991	242	239.37	0.00413
1602	90.08991	239	239.57001	0.00418
1603	90.13991	232	239.82001	0.00431
1604	90.18991	237	240.12	0.00422
1605	90.23991	234	240.5	0.00427
1606	90.28991	247	241.00999	0.00405
1607	90.33991	233	241.75999	0.00429
1608	90.38991	240	242.89	0.00417
1609	90.43991	231	244.7	0.00433
1610	90.48991	244	247.62	0.0041
1611	90.53991	249	252.17999	0.00402
1612	90.58991	260	259.07999	0.00385
1613	90.63991	268	268.89999	0.00373
1614	90.68991	277	281.87	0.00361
1615	90.73991	290	297.51001	0.00345
1616	90.78991	307	314.39999	0.00326
1617	90.83991	321	330.45999	0.00312
1618	90.88991	333	342.87	0.003
1619	90.93991	326	348.54999	0.00307
1620	90.98991	319	346.19	0.00313
1621	91.03991	303	337.79001	0.0033
1622	91.08991	296	326.62	0.00338
1623	91.13991	270	314.78	0.0037
1624	91.18991	271	302.82999	0.00369
1625	91.23991	261	290.79001	0.00383
1626	91.28991	258	279.20001	0.00388
1627	91.33991	239	268.91	0.00418
1628	91.38991	249	260.45001	0.00402
1629	91.43991	247	254	0.00405
1630	91.48991	245	249.44	0.00408
1631	91.53991	231	246.45	0.00433
1632	91.58991	244	244.66	0.0041
1633	91.63991	235	243.7	0.00426
1634	91.68991	237	243.3	0.00422
1635	91.73991	239	243.28	0.00418
1636	91.78991	238	243.58	0.0042
1637	91.83991	236	244.25	0.00424
1638	91.88991	243	245.47	0.00412
1639	91.93991	230	247.2	0.00435
1640	91.98991	238	249.63	0.0042
1641	92.03991	244	252.92	0.0041
1642	92.08991	240	256.97	0.00417
1643	92.13991	245	261.34	0.00408
1644	92.18991	240	265.17001	0.00417
1645	92.23991	234	267.32001	0.00427
1646	92.28991	248	266.94	0.00403
1647	92.33991	245	264.23999	0.00408
1648	92.38991	244	260.25	0.0041
1649	92.43991	239	256.04001	0.00418
1650	92.48991	251	252.35001	0.00398
1651	92.53991	242	249.53	0.00413
1652	92.58991	247	247.09	0.00405
1653	92.63991	243	245.42	0.00412
1654	92.68991	238	244.3	0.0042
1655	92.73991	241	243.53999	0.00415
1656	92.78991	255	242.97	0.00392
1657	92.83991	251	242.5	0.00398
1658	92.88991	262	242.10001	0.00382
1659	92.93991	270	241.72	0.0037
1660	92.98991	261	241.36	0.00383
1661	93.03991	258	241.02	0.00388
1662	93.08991	249	240.69	0.00402
1663	93.13991	249	240.37	0.00402
1664	93.18991	236	240.06	0.00424
1665	93.23991	243	239.75	0.00412
1666	93.28991	241	239.45	0.00415
1667	93.33991	245	239.14999	0.00408
1668	93.38991	243	238.86	0.00412
1669	93.43991	230	238.57001	0.00435
1670	93.48991	238	238.28999	0.0042
1671	93.53991	243	238.00999	0.00412
1672	93.58991	234	237.78999	0.00427
1673	93.63991	236	237.86	0.00424
1674	93.68991	238	237.92999	0.0042
1675	93.73991	231	238.00999	0.00433
1676	93.78991	229	238.08	0.00437
1677	93.83991	227	238.16	0.00441
1678	93.88991	236	238.24001	0.00424
1679	93.93991	232	238.32001	0.00431
1680	93.98991	234	238.41	0.00427
1681	94.03991	242	238.5	0.00413
1682	94.08991	231	238.60001	0.00433
1683	94.13991	240	238.7	0.00417
1684	94.18991	241	238.8	0.00415
1685	94.23991	238	238.91	0.0042
1686	94.28991	240	239.02	0.00417
1687	94.33991	236	239.13	0.00424
1688	94.38991	231	239.25	0.00433
1689	94.43991	241	239.38	0.00415
1690	94.48991	233	239.50999	0.00429
1691	94.53991	234	239.64999	0.00427
1692	94.58991	237	239.78999	0.00422
1693	94.63991	239	239.94	0.00418
1694	94.68991	233	240.10001	0.00429
1695	94.73991	238	240.25999	0.0042
1696	94.78991	237	240.44	0.00422
1697	94.83991	235	240.62	0.00426
1698	94.88991	237	240.82001	0.00422
1699	94.93991	235	241.03	0.00426
1700	94.98991	240	241.25999	0.00417
1701	95.03991	239	241.5	0.00418
1702	95.08991	235	241.75999	0.00426
1703	95.13991	235	242.03	0.00426
1704	95.18991	241	242.34	0.00415
1705	95.23991	238	242.67	0.0042
1706	95.28991	238	243.03	0.0042
1707	95.33991	233	243.42999	0.00429
1708	95.38991	245	243.87	0.00408
1709	95.43991	236	244.36	0.00424
1710	95.48991	240	244.91	0.00417
1711	95.53991	242	245.50999	0.00413
1712	95.58991	244	246.19	0.0041
1713	95.63991	243	246.97	0.00412
1714	95.68991	238	247.87	0.0042
1715	95.73991	244	248.92999	0.0041
1716	95.78991	250	250.19	0.004
1717	95.83991	248	251.73	0.00403
1718	95.88991	249	253.7	0.00402
1719	95.93991	254	256.37	0.00394
1720	95.98991	254	260.34	0.00394
1721	96.03991	263	266.73999	0.0038
1722	96.08991	290	277.51999	0.00345
1723	96.13991	319	295.63	0.00313
1724	96.18991	337	324.82001	0.00297
1725	96.23991	374	368.73999	0.00267
1726	96.28991	433	429.32999	0.00231
1727	96.33991	519	504.87	0.00193
1728	96.38991	595	588.20001	0.00168
1729	96.43991	655	665.95001	0.00153
1730	96.48991	697	721.02002	0.00143
1731	96.53991	711	740.73999	0.00141
1732	96.58991	671	725.46997	0.00149
1733	96.63991	639	686.64001	0.00156
1734	96.68991	597	636.98999	0.00168
1735	96.73991	536	586.42999	0.00187
1736	96.78991	492	543.35999	0.00203
1737	96.83991	473	512.89001	0.00211
1738	96.88991	451	493.95001	0.00222
1739	96.93991	442	479.62	0.00226
1740	96.98991	422	460.84	0.00237
1741	97.03991	396	432.73999	0.00253
1742	97.08991	364	397.70001	0.00275
1743	97.13991	328	361.42001	0.00305
1744	97.18991	304	328.73999	0.00329
1745	97.23991	280	302.39001	0.00357
1746	97.28991	280	283.10001	0.00357
1747	97.33991	269	270.10999	0.00372
1748	97.38991	258	261.89999	0.00388
1749	97.43991	252	256.88	0.00397
1750	97.48991	248	253.78	0.00403
1751	97.53991	250	251.75	0.004
1752	97.58991	246	250.33	0.00407
1753	97.63991	247	249.24001	0.00405
1754	97.68991	246	248.37	0.00407
1755	97.73991	248	247.64	0.00403
1756	97.78991	246	247.03999	0.00407
1757	97.83991	241	246.52	0.00415
1758	97.88991	244	246.07001	0.0041
1759	97.93991	239	245.69	0.00418
1760	97.98991	250	245.36	0.004
1761	98.03991	242	245.08	0.00413
1762	98.08991	242	244.83	0.00413
1763	98.13991	232	244.62	0.00431
1764	98.18991	241	244.42999	0.00415
1765	98.23991	243	244.23	0.00412
1766	98.28991	242	244.03999	0.00413
1767	98.33991	242	243.87	0.00413
1768	98.38991	237	243.73	0.00422
1769	98.43991	243	243.60001	0.00412
1770	98.48991	249	243.48	0.00402
1771	98.53991	236	243.38	0.00424
1772	98.58991	240	243.28999	0.00417
1773	98.63991	248	243.22	0.00403
1774	98.68991	241	243.17	0.00415
1775	98.73991	243	243.13	0.00412
1776	98.78991	239	243.11	0.00418
1777	98.83991	245	243.11	0.00408
1778	98.88991	245	243.12	0.00408
1779	98.93991	247	243.14	0.00405
1780	98.98991	240	243.19	0.00417
1781	99.03991	252	243.25999	0.00397
1782	99.08991	242	243.3	0.00413
1783	99.13991	240	243.37	0.00417
1784	99.18991	230	243.48	0.00435
1785	99.23991	241	243.64	0.00415
1786	99.28991	234	243.87	0.00427
1787	99.33991	234	244.2	0.00427
1788	99.38991	240	244.71001	0.00417
1789	99.43991	242	245.53999	0.00413
1790	99.48991	254	246.96001	0.00394
1791	99.53991	252	249.48	0.00397
1792	99.58991	257	253.87	0.00389
1793	99.63991	260	261.13	0.00385
1794	99.68991	277	272.26999	0.00361
1795	99.73991	290	287.84	0.00345
1796	99.78991	307	307.41	0.00326
1797	99.83991	327	329.04999	0.00306
1798	99.88991	346	349.10999	0.00289
1799	99.93991	344	362.64001	0.00291
1800	99.98991	339	365.69	0.00295
1801	100.03991	317	358.37	0.00315
1802	100.08991	298	344.39001	0.00336
1803	100.13991	289	328.12	0.00346
1804	100.18991	288	312.72	0.00347
1805	100.23991	272	299.73001	0.00368
1806	100.28991	259	289.35001	0.00386
1807	100.33991	260	280.85999	0.00385
1808	100.38991	257	273.29999	0.00389
1809	100.43991	257	266.23001	0.00389
1810	100.48991	246	259.79999	0.00407
1811	100.53991	244	254.28	0.0041
1812	100.58991	251	249.82001	0.00398
1813	100.63991	251	246.42999	0.00398
1814	100.68991	246	244.00999	0.00407
1815	100.73991	240	242.35001	0.00417
1816	100.78991	240	241.22	0.00417
1817	100.83991	239	240.45	0.00418
1818	100.88991	234	239.89	0.00427
1819	100.93991	242	239.46001	0.00413
1820	100.98991	240	239.11	0.00417
1821	101.03991	242	238.82001	0.00413
1822	101.08991	232	238.55	0.00431
1823	101.13991	225	238.31	0.00444
1824	101.18991	231	238.19	0.00433
1825	101.23991	238	238.10001	0.0042
1826	101.28991	236	238.00999	0.00424
1827	101.33991	242	237.94	0.00413
1828	101.38991	239	237.88	0.00418
1829	101.43991	235	237.83	0.00426
1830	101.48991	236	237.78999	0.00424
1831	101.53991	250	237.75	0.004
1832	101.58991	241	237.71001	0.00415
1833	101.63991	235	237.69	0.00426
1834	101.68991	233	237.66	0.00429
1835	101.73991	234	237.64	0.00427
1836	101.78991	240	237.63	0.00417
1837	101.83991	241	237.61	0.00415
1838	101.88991	237	237.60001	0.00422
1839	101.93991	237	237.59	0.00422
1840	101.98991	231	237.59	0.00433
1841	102.03991	229	237.58	0.00437
1842	102.08991	231	237.58	0.00433
1843	102.13991	235	237.58	0.00426
1844	102.18991	241	237.58	0.00415
1845	102.23991	240	237.58	0.00417
1846	102.28991	238	237.59	0.0042
1847	102.33991	233	237.59	0.00429
1848	102.38991	240	237.60001	0.00417
1849	102.43991	244	237.61	0.0041
1850	102.48991	237	237.61	0.00422
1851	102.53991	239	237.62	0.00418
1852	102.58991	243	237.62	0.00412
1853	102.63991	251	237.63	0.00398
1854	102.68991	237	237.64	0.00422
1855	102.73991	242	237.64999	0.00413
1856	102.78991	239	237.67	0.00418
1857	102.83991	238	237.69	0.0042
1858	102.88991	238	237.7	0.0042
1859	102.93991	239	237.72	0.00418
1860	102.98991	233	237.74001	0.00429
1861	103.03991	240	237.75	0.00417
1862	103.08991	240	237.77	0.00417
1863	103.13991	239	237.78999	0.00418
1864	103.18991	243	237.81	0.00412
1865	103.23991	246	237.84	0.00407
1866	103.28991	242	237.86	0.00413
1867	103.33991	234	237.89	0.00427
1868	103.38991	235	237.91	0.00426
1869	103.43991	243	237.94	0.00412
1870	103.48991	234	237.97	0.00427
1871	103.53991	239	238	0.00418
1872	103.58991	235	238.03999	0.00426
1873	103.63991	231	238.07001	0.00433
1874	103.68991	237	238.21001	0.00422
1875	103.73991	239	238.42	0.00418
1876	103.78991	233	238.63	0.00429
1877	103.83991	241	238.84	0.00415
1878	103.88991	237	239.06	0.00422
1879	103.93991	238	239.28	0.0042
1880	103.98991	242	239.5	0.00413
1881	104.03991	243	239.73	0.00412
1882	104.08991	238	239.96001	0.0042
1883	104.13991	242	240.19	0.00413
1884	104.18991	243	240.42	0.00412
1885	104.23991	240	240.66	0.00417
1886	104.28991	249	240.91	0.00402
1887	104.33991	250	241.16	0.004
1888	104.38991	244	241.41	0.0041
1889	104.43991	248	241.67999	0.00403
1890	104.48991	242	241.95	0.00413
1891	104.53991	237	242.22	0.00422
1892	104.58991	243	242.50999	0.00412
1893	104.63991	247	242.81	0.00405
1894	104.68991	242	243.12	0.00413
1895	104.73991	237	243.45	0.00422
1896	104.78991	243	243.78999	0.00412
1897	104.83991	244	244.14999	0.0041
1898	104.88991	238	244.53999	0.0042
1899	104.93991	241	244.95	0.00415
1900	104.98991	253	245.39	0.00395
1901	105.03991	254	245.88	0.00394
1902	105.08991	240	246.41	0.00417
1903	105.13991	244	247	0.0041
1904	105.18991	238	247.66	0.0042
1905	105.23991	249	248.39	0.00402
1906	105.28991	247	249.10001	0.00405
1907	105.33991	257	249.99001	0.00389
1908	105.38991	253	251.16	0.00395
1909	105.43991	240	252.84	0.00417
1910	105.48991	243	255.48	0.00412
1911	105.53991	262	259.91	0.00382
1912	105.58991	278	267.51999	0.0036
1913	105.63991	280	280.26001	0.00357
1914	105.68991	303	300.38	0.0033
1915	105.73991	345	329.73001	0.0029
1916	105.78991	384	368.57001	0.0026
1917	105.83991	433	414.45999	0.00231
1918	105.88991	519	461.37	0.00193
1919	105.93991	574	499.48001	0.00174
1920	105.98991	565	517.26001	0.00177
1921	106.03991	539	507.84	0.00186
1922	106.08991	478	475	0.00209
1923	106.13991	426	429.72	0.00235
1924	106.18991	370	382.73001	0.0027
1925	106.23991	344	341.28	0.00291
1926	106.28991	307	308.92001	0.00326
1927	106.33991	279	286.07999	0.00358
1928	106.38991	274	271.29999	0.00365
1929	106.43991	263	262.38	0.0038
1930	106.48991	265	257.17001	0.00377
1931	106.53991	261	254.13	0.00383
1932	106.58991	257	252.25999	0.00389
1933	106.63991	255	251.00999	0.00392
1934	106.68991	251	250.10001	0.00398
1935	106.73991	250	249.39999	0.004
1936	106.78991	245	248.83	0.00408
1937	106.83991	250	248.36	0.004
1938	106.88991	255	247.97	0.00392
1939	106.93991	246	247.64	0.00407
1940	106.98991	255	247.36	0.00392
1941	107.03991	255	247.12	0.00392
1942	107.08991	261	246.92	0.00383
1943	107.13991	254	246.74001	0.00394
1944	107.18991	252	246.59	0.00397
1945	107.23991	253	246.46001	0.00395
1946	107.28991	247	246.35001	0.00405
1947	107.33991	253	246.25	0.00395
1948	107.38991	248	246.17	0.00403
1949	107.43991	245	246.10001	0.00408
1950	107.48991	248	246.03999	0.00403
1951	107.53991	249	245.99001	0.00402
1952	107.58991	242	245.94	0.00413
1953	107.63991	249	245.91	0.00402
1954	107.68991	254	245.88	0.00394
1955	107.73991	241	245.85001	0.00415
1956	107.78991	242	245.83	0.00413
1957	107.83991	248	245.82001	0.00403
1958	107.88991	248	245.81	0.00403
1959	107.93991	248	245.8	0.00403
1960	107.98991	242	245.8	0.00413
1961	108.03991	238	245.92999	0.0042
1962	108.08991	235	246.12	0.00426
1963	108.13991	240	246.3	0.00417
1964	108.18991	244	246.49001	0.0041
1965	108.23991	244	246.67999	0.0041
1966	108.28991	247	246.88	0.00405
1967	108.33991	248	247.08	0.00403
1968	108.38991	246	247.28	0.00407
1969	108.43991	250	247.49001	0.004
1970	108.48991	254	247.7	0.00394
1971	108.53991	258	247.92	0.00388
1972	108.58991	254	248.14	0.00394
1973	108.63991	261	248.36	0.00383
1974	108.68991	282	248.59	0.00355
1975	108.73991	271	248.83	0.00369
1976	108.78991	262	249.08	0.00382
1977	108.83991	258	249.34	0.00388
1978	108.88991	249	249.63	0.00402
1979	108.93991	250	249.95	0.004
1980	108.98991	252	250.34	0.00397
1981	109.03991	257	250.82001	0.00389
1982	109.08991	246	251.46001	0.00407
1983	109.13991	251	252.34	0.00398
1984	109.18991	254	253.55	0.00394
1985	109.23991	254	255.14999	0.00394
1986	109.28991	251	257.14999	0.00398
1987	109.33991	243	259.48999	0.00412
1988	109.38991	249	261.95001	0.00402
1989	109.43991	244	264.22	0.0041
1990	109.48991	254	265.91	0.00394
1991	109.53991	249	266.64999	0.00402
1992	109.58991	248	266.41	0.00403
1993	109.63991	258	265.64999	0.00388
1994	109.68991	256	264.97	0.00391
1995	109.73991	255	264.87	0.00392
1996	109.78991	255	265.54999	0.00392
1997	109.83991	255	266.91	0.00392
1998	109.88991	254	268.54001	0.00394
1999	109.93991	253	269.81	0.00395
2000	109.98991	248	270.09	0.00403
2001	110.03991	248	269.20001	0.00403
2002	110.08991	259	267.47	0.00386
2003	110.13991	253	265.48001	0.00395
2004	110.18991	253	263.64999	0.00395
2005	110.23991	256	262.29001	0.00391
2006	110.28991	254	261.94	0.00394
2007	110.33991	260	262.87	0.00385
2008	110.38991	267	265.29999	0.00375
2009	110.43991	262	269.39001	0.00382
2010	110.48991	275	275.17001	0.00364
2011	110.53991	287	282.41	0.00348
2012	110.58991	298	290.56	0.00336
2013	110.63991	302	298.64999	0.00331
2014	110.68991	316	305.48999	0.00316
2015	110.73991	323	310.23999	0.0031
2016	110.78991	342	312.92999	0.00292
2017	110.83991	337	313.89001	0.00297
2018	110.88991	337	312.95001	0.00297
2019	110.93991	314	309.56	0.00318
2020	110.98991	311	303.67999	0.00322
2021	111.03991	301	296.38	0.00332
2022	111.08991	283	289.04999	0.00353
2023	111.13991	267	282.73001	0.00375
2024	111.18991	262	277.79999	0.00382
2025	111.23991	273	274.07999	0.00366
2026	111.28991	259	271.01001	0.00386
2027	111.33991	265	268.07001	0.00377
2028	111.38991	253	265.07999	0.00395
2029	111.43991	252	262.16	0.00397
2030	111.48991	252	259.5	0.00397
2031	111.53991	253	257.25	0.00395
2032	111.58991	247	255.46001	0.00405
2033	111.63991	256	254.12	0.00391
2034	111.68991	256	253.17	0.00391
2035	111.73991	251	252.5	0.00398
2036	111.78991	259	252.02	0.00386
2037	111.83991	257	251.66	0.00389
2038	111.88991	255	251.38	0.00392
2039	111.93991	245	251.14	0.00408
2040	111.98991	241	250.92999	0.00415
2041	112.03991	246	250.74001	0.00407
2042	112.08991	251	250.55	0.00398
2043	112.13991	251	250.38	0.00398
2044	112.18991	249	250.25999	0.00402
2045	112.23991	248	250.27	0.00403
2046	112.28991	253	250.27	0.00395
2047	112.33991	252	250.28999	0.00397
2048	112.38991	247	250.3	0.00405
2049	112.43991	247	250.33	0.00405
2050	112.48991	250	250.35001	0.004
2051	112.53991	250	250.39	0.004
2052	112.58991	247	250.42	0.00405
2053	112.63991	250	250.46001	0.004
2054	112.68991	245	250.5	0.00408
2055	112.73991	247	250.53999	0.00405
2056	112.78991	241	250.59	0.00415
2057	112.83991	245	250.64	0.00408
2058	112.88991	251	250.69	0.00398
2059	112.93991	257	250.74001	0.00389
2060	112.98991	250	250.8	0.004
2061	113.03991	249	250.86	0.00402
2062	113.08991	246	250.92	0.00407
2063	113.13991	244	250.98	0.0041
2064	113.18991	243	251.05	0.00412
2065	113.23991	249	251.12	0.00402
2066	113.28991	250	251.2	0.004
2067	113.33991	252	251.27	0.00397
2068	113.38991	254	251.35001	0.00394
2069	113.43991	247	251.44	0.00405
2070	113.48991	248	251.52	0.00403
2071	113.53991	253	251.62	0.00395
2072	113.58991	240	251.71001	0.00417
2073	113.63991	243	251.81	0.00412
2074	113.68991	259	251.92	0.00386
2075	113.73991	253	252.03	0.00395
2076	113.78991	257	252.14999	0.00389
2077	113.83991	264	252.27	0.00379
2078	113.88991	253	252.41	0.00395
2079	113.93991	243	252.55	0.00412
2080	113.98991	245	252.7	0.00408
2081	114.03991	247	252.86	0.00405
2082	114.08991	252	253.03	0.00397
2083	114.13991	255	253.22	0.00392
2084	114.18991	249	253.42	0.00402
2085	114.23991	248	253.63	0.00403
2086	114.28991	254	253.87	0.00394
2087	114.33991	252	254.13	0.00397
2088	114.38991	255	254.41	0.00392
2089	114.43991	259	254.72	0.00386
2090	114.48991	248	255.07001	0.00403
2091	114.53991	252	255.45	0.00397
2092	114.58991	256	255.88	0.00391
2093	114.63991	246	256.37	0.00407
2094	114.68991	248	256.92001	0.00403
2095	114.73991	248	257.54999	0.00403
2096	114.78991	250	258.29001	0.004
2097	114.83991	263	259.16	0.0038
2098	114.88991	265	260.23999	0.00377
2099	114.93991	258	261.62	0.00388
2100	114.98991	274	263.53	0.00365
2101	115.03991	285	266.32001	0.00351
2102	115.08991	295	270.59	0.00339
2103	115.13991	297	277.20999	0.00337
2104	115.18991	299	287.35999	0.00334
2105	115.23991	327	302.32999	0.00306
2106	115.28991	359	323.35999	0.00279
2107	115.33991	386	351.17001	0.00259
2108	115.38991	435	385.54999	0.0023
2109	115.43991	495	424.88	0.00202
2110	115.48991	545	465.82999	0.00183
2111	115.53991	586	503.76001	0.00171
2112	115.58991	624	534.39001	0.0016
2113	115.63991	669	555.59998	0.00149
2114	115.68991	699	567.06	0.00143
2115	115.73991	686	568.41998	0.00146
2116	115.78991	660	560.06	0.00152
2117	115.83991	627	545.23999	0.00159
2118	115.88991	573	529.07001	0.00175
2119	115.93991	555	514.94	0.0018
2120	115.98991	538	502.54001	0.00186
2121	116.03991	523	488.31	0.00191
2122	116.08991	506	468.03	0.00198
2123	116.13991	460	440.48001	0.00217
2124	116.18991	400	408.28	0.0025
2125	116.23991	374	375.5	0.00267
2126	116.28991	332	345.5	0.00301
2127	116.33991	315	320.34	0.00317
2128	116.38991	299	300.81	0.00334
2129	116.43991	287	286.70001	0.00348
2130	116.48991	285	277.09	0.00351
2131	116.53991	282	270.84	0.00355
2132	116.58991	277	266.87	0.00361
2133	116.63991	267	264.32001	0.00375
2134	116.68991	269	262.63	0.00372
2135	116.73991	266	261.42001	0.00376
2136	116.78991	268	260.51001	0.00373
2137	116.83991	253	259.78	0.00395
2138	116.88991	257	259.17999	0.00389
2139	116.93991	258	258.67001	0.00388
2140	116.98991	247	258.23999	0.00405
2141	117.03991	252	257.88	0.00397
2142	117.08991	252	257.56	0.00397
2143	117.13991	261	257.29001	0.00383
2144	117.18991	250	257.06	0.004
2145	117.23991	250	256.85001	0.004
2146	117.28991	256	256.67999	0.00391
2147	117.33991	254	256.53	0.00394
2148	117.38991	247	256.39999	0.00405
2149	117.43991	250	256.25	0.004
2150	117.48991	257	255.97	0.00389
2151	117.53991	269	255.7	0.00372
2152	117.58991	255	255.44	0.00392
2153	117.63991	252	255.2	0.00397
2154	117.68991	257	254.96001	0.00389
2155	117.73991	250	254.74001	0.004
2156	117.78991	251	254.53	0.00398
2157	117.83991	251	254.33	0.00398
2158	117.88991	255	254.14	0.00392
2159	117.93991	258	253.95	0.00388
2160	117.98991	247	253.78	0.00405
2161	118.03991	248	253.61	0.00403
2162	118.08991	250	253.46001	0.004
2163	118.13991	252	253.31	0.00397
2164	118.18991	250	253.17	0.004
2165	118.23991	250	253.05	0.004
2166	118.28991	245	252.92999	0.00408
2167	118.33991	247	252.83	0.00405
2168	118.38991	249	252.74001	0.00402
2169	118.43991	254	252.67	0.00394
2170	118.48991	248	252.62	0.00403
2171	118.53991	253	252.59	0.00395
2172	118.58991	248	252.59	0.00403
2173	118.63991	251	252.78	0.00398
2174	118.68991	257	253.07001	0.00389
2175	118.73991	258	253.44	0.00388
2176	118.78991	255	253.98	0.00392
2177	118.83991	250	254.77	0.004
2178	118.88991	265	256	0.00377
2179	118.93991	255	257.92001	0.00392
2180	118.98991	261	260.85999	0.00383
2181	119.03991	266	265.17999	0.00376
2182	119.08991	273	271.17999	0.00366
2183	119.13991	287	278.92001	0.00348
2184	119.18991	294	288.14999	0.0034
2185	119.23991	303	298.17001	0.0033
2186	119.28991	314	307.76999	0.00318
2187	119.33991	325	315.31	0.00308
2188	119.38991	318	319.20999	0.00314
2189	119.43991	321	318.79001	0.00312
2190	119.48991	309	314.95999	0.00324
2191	119.53991	300	309.59	0.00333
2192	119.58991	306	304.54001	0.00327
2193	119.63991	302	301.07001	0.00331
2194	119.68991	299	299.64999	0.00334
2195	119.73991	311	300	0.00322
2196	119.78991	319	301.17999	0.00313
2197	119.83991	313	301.95001	0.00319
2198	119.88991	307	301.35001	0.00326
2199	119.93991	301	299.22	0.00332
2200	119.98991	302	295.89999	0.00331
2201	120.03991	286	291.88	0.0035
2202	120.08991	284	287.56	0.00352
2203	120.13991	274	283.37	0.00365
2204	120.18991	267	279.54999	0.00375
2205	120.23991	269	276.16	0.00372
2206	120.28991	265	273.10999	0.00377
2207	120.33991	274	270.39999	0.00365
2208	120.38991	261	268.10999	0.00383
2209	120.43991	263	266.39001	0.0038
2210	120.48991	262	265.26001	0.00382
2211	120.53991	262	264.70999	0.00382
2212	120.58991	272	264.57999	0.00368
2213	120.63991	270	264.67999	0.0037
2214	120.68991	272	264.79999	0.00368
2215	120.73991	278	264.84	0.0036
2216	120.78991	281	264.85999	0.00356
2217	120.83991	269	265.01001	0.00372
2218	120.88991	278	265.39999	0.0036
2219	120.93991	273	266.07999	0.00366
2220	120.98991	267	266.98001	0.00375
2221	121.03991	275	267.95999	0.00364
2222	121.08991	279	268.88	0.00358
2223	121.13991	280	269.73001	0.00357
2224	121.18991	273	270.70001	0.00366
2225	121.23991	281	271.95001	0.00356
2226	121.28991	280	273.56	0.00357
2227	121.33991	276	275.35001	0.00362
2228	121.38991	288	276.95001	0.00347
2229	121.43991	288	277.79999	0.00347
2230	121.48991	296	277.42001	0.00338
2231	121.53991	303	275.64001	0.0033
2232	121.58991	297	272.82001	0.00337
2233	121.63991	300	269.47	0.00333
2234	121.68991	299	266.07999	0.00334
2235	121.73991	307	263	0.00326
2236	121.78991	307	260.44	0.00326
2237	121.83991	300	258.45999	0.00333
2238	121.88991	283	257.04001	0.00353
2239	121.93991	274	256.07999	0.00365
2240	121.98991	265	255.45	0.00377
2241	122.03991	264	255.07001	0.00379
2242	122.08991	257	254.83	0.00389
2243	122.13991	264	254.69	0.00379
2244	122.18991	265	254.61	0.00377
2245	122.23991	262	254.56	0.00382
2246	122.28991	265	254.53	0.00377
2247	122.33991	259	254.50999	0.00386
2248	122.38991	253	254.50999	0.00395
2249	122.43991	257	254.50999	0.00389
2250	122.48991	253	254.52	0.00395
2251	122.53991	255	254.53999	0.00392
2252	122.58991	251	254.56	0.00398
2253	122.63991	249	254.59	0.00402
2254	122.68991	261	254.62	0.00383
2255	122.73991	252	254.64999	0.00397
2256	122.78991	244	254.69	0.0041
2257	122.83991	256	254.73	0.00391
2258	122.88991	248	254.78	0.00403
2259	122.93991	253	254.83	0.00395
2260	122.98991	249	254.88	0.00402
2261	123.03991	255	255.11	0.00392
2262	123.08991	253	255.41	0.00395
2263	123.13991	252	255.72	0.00397
2264	123.18991	263	256.03	0.0038
2265	123.23991	262	256.34	0.00382
2266	123.28991	252	256.64999	0.00397
2267	123.33991	259	256.97	0.00386
2268	123.38991	253	257.29001	0.00395
2269	123.43991	263	257.60999	0.0038
2270	123.48991	254	257.92999	0.00394
2271	123.53991	259	258.26001	0.00386
2272	123.58991	262	258.59	0.00382
2273	123.63991	260	258.92001	0.00385
2274	123.68991	257	259.25	0.00389
2275	123.73991	257	259.59	0.00389
2276	123.78991	257	259.92999	0.00389
2277	123.83991	256	260.28	0.00391
2278	123.88991	255	260.63	0.00392
2279	123.93991	257	260.98001	0.00389
2280	123.98991	263	261.34	0.0038
2281	124.03991	252	261.70001	0.00397
2282	124.08991	258	262.07001	0.00388
2283	124.13991	260	262.44	0.00385
2284	124.18991	260	262.82001	0.00385
2285	124.23991	260	263.20999	0.00385
2286	124.28991	260	263.60001	0.00385
2287	124.33991	261	264	0.00383
2288	124.38991	252	264.41	0.00397
2289	124.43991	263	264.82999	0.0038
2290	124.48991	259	265.26001	0.00386
2291	124.53991	262	265.70001	0.00382
2292	124.58991	261	266.16	0.00383
2293	124.63991	267	266.62	0.00375
2294	124.68991	276	267.10999	0.00362
2295	124.73991	265	267.60999	0.00377
2296	124.78991	260	268.13	0.00385
2297	124.83991	267	268.67999	0.00375
2298	124.88991	261	269.25	0.00383
2299	124.93991	255	269.84	0.00392
2300	124.98991	266	270.31	0.00376
2301	125.03991	269	270.79001	0.00372
2302	125.08991	273	271.32001	0.00366
2303	125.13991	271	271.89999	0.00369
2304	125.18991	266	272.54001	0.00376
2305	125.23991	272	273.25	0.00368
2306	125.28991	267	274.06	0.00375
2307	125.33991	273	274.98001	0.00366
2308	125.38991	277	276.07999	0.00361
2309	125.43991	266	277.42001	0.00376
2310	125.48991	273	279.16	0.00366
2311	125.53991	286	281.51001	0.0035
2312	125.58991	304	284.87	0.00329
2313	125.63991	305	289.79001	0.00328
2314	125.68991	306	297.01001	0.00327
2315	125.73991	322	307.48999	0.00311
2316	125.78991	338	322.20001	0.00296
2317	125.83991	372	342	0.00269
2318	125.88991	406	367.32001	0.00246
2319	125.93991	453	397.82999	0.00221
2320	125.98991	499	432.26001	0.002
2321	126.03991	541	468.13	0.00185
2322	126.08991	567	501.85999	0.00176
2323	126.13991	584	529.03003	0.00171
2324	126.18991	589	545.56	0.0017
2325	126.23991	573	549.95001	0.00175
2326	126.28991	554	544.71997	0.00181
2327	126.33991	521	535.46997	0.00192
2328	126.38991	518	528.46002	0.00193
2329	126.43991	516	528.59003	0.00194
2330	126.48991	531	538.56	0.00188
2331	126.53991	595	558.35999	0.00168
2332	126.58991	635	585.28003	0.00157
2333	126.63991	690	613.95001	0.00145
2334	126.68991	720	637.01001	0.00139
2335	126.73991	690	646.72998	0.00145
2336	126.78991	642	638.02002	0.00156
2337	126.83991	574	611	0.00174
2338	126.88991	519	570.45001	0.00193
2339	126.93991	468	522.91998	0.00214
2340	126.98991	412	474.37	0.00243
2341	127.03991	368	429.23001	0.00272
2342	127.08991	354	390.28	0.00282
2343	127.13991	337	358.76001	0.00297
2344	127.18991	323	334.67001	0.0031
2345	127.23991	310	317.16	0.00323
2346	127.28991	302	304.95999	0.00331
2347	127.33991	299	296.70999	0.00334
2348	127.38991	307	291.23001	0.00326
2349	127.43991	305	287.57999	0.00328
2350	127.48991	293	285.09	0.00341
2351	127.53991	293	283.32001	0.00341
2352	127.58991	291	281.98999	0.00344
2353	127.63991	292	280.95999	0.00342
2354	127.68991	289	280.12	0.00346
2355	127.73991	288	279.42001	0.00347
2356	127.78991	284	278.82001	0.00352
2357	127.83991	277	278.32001	0.00361
2358	127.88991	275	277.89001	0.00364
2359	127.93991	270	277.51999	0.0037
2360	127.98991	270	277.20001	0.0037
2361	128.0399	266	276.92001	0.00376
2362	128.0899	272	276.69	0.00368
2363	128.13991	269	276.48999	0.00372
2364	128.18991	274	276.32001	0.00365
2365	128.23991	271	276.17999	0.00369
2366	128.28992	273	276.06	0.00366
2367	128.3399	271	275.95999	0.00369
2368	128.38991	263	275.89001	0.0038
2369	128.43991	266	275.82999	0.00376
2370	128.48991	270	275.78	0.0037
2371	128.53992	257	275.75	0.00389
2372	128.5899	271	275.73001	0.00369
2373	128.63991	265	275.69	0.00377
2374	128.68991	265	275.60001	0.00377
2375	128.73991	273	275.51001	0.00366
2376	128.78992	273	275.42999	0.00366
2377	128.8399	273	275.37	0.00366
2378	128.88991	274	275.31	0.00365
2379	128.93991	277	275.26001	0.00361
2380	128.98991	270	275.22	0.0037
2381	129.03992	276	275.19	0.00362
2382	129.0899	275	275.17001	0.00364
2383	129.13991	272	275.14999	0.00368
2384	129.18991	266	275.14999	0.00376
2385	129.23991	272	275.16	0.00368
2386	129.28992	271	275.17001	0.00369
2387	129.3399	268	275.20001	0.00373
2388	129.38991	265	275.23999	0.00377
2389	129.43991	270	275.29001	0.0037
2390	129.48991	266	275.35999	0.00376
2391	129.53992	267	275.45001	0.00375
2392	129.5899	277	275.56	0.00361
2393	129.63991	283	275.70999	0.00353
2394	129.68991	277	275.91	0.00361
2395	129.73991	272	276.17001	0.00368
2396	129.78992	267	276.54999	0.00375
2397	129.8399	266	277.09	0.00376
2398	129.88991	267	277.87	0.00375
2399	129.93991	274	278.98999	0.00365
2400	129.98991	279	280.57001	0.00358
2401	130.03992	278	282.72	0.0036
2402	130.0899	282	285.57001	0.00355
2403	130.13991	291	289.17999	0.00344
2404	130.18991	301	293.60001	0.00332
2405	130.23991	307	298.73001	0.00326
2406	130.28992	311	304.42999	0.00322
2407	130.3399	314	310.39001	0.00318
2408	130.38991	329	316.22	0.00304
2409	130.43991	334	321.44	0.00299
2410	130.48991	336	325.60999	0.00298
2411	130.53992	338	328.54001	0.00296
2412	130.5899	344	330.35999	0.00291
2413	130.63991	342	331.35999	0.00292
2414	130.68991	344	331.79999	0.00291
2415	130.73991	345	331.73001	0.0029
2416	130.78992	344	331.01001	0.00291
2417	130.8399	344	329.35001	0.00291
2418	130.88991	337	326.54999	0.00297
2419	130.93991	316	322.64001	0.00316
2420	130.98991	315	317.91	0.00317
2421	131.03992	308	312.76001	0.00325
2422	131.0899	299	307.57999	0.00334
2423	131.13991	289	302.73999	0.00346
2424	131.18991	282	298.5	0.00355
2425	131.23991	286	295.04999	0.0035
2426	131.28992	293	292.45999	0.00341
2427	131.3399	287	290.73999	0.00348
2428	131.38991	288	289.79999	0.00347
2429	131.43991	284	289.51999	0.00352
2430	131.48991	295	289.79001	0.00339
2431	131.53992	281	290.54001	0.00356
2432	131.5899	293	291.78	0.00341
2433	131.63991	305	293.57001	0.00328
2434	131.68991	313	296.03	0.00319
2435	131.73991	309	299.23999	0.00324
2436	131.78992	320	303.17999	0.00313
2437	131.8399	334	307.70999	0.00299
2438	131.88991	340	312.56	0.00294
2439	131.93991	344	317.32001	0.00291
2440	131.98991	349	321.47	0.00287
2441	132.03992	360	324.5	0.00278
2442	132.0899	355	326.04001	0.00282
2443	132.13991	341	325.88	0.00293
2444	132.18991	342	324.04999	0.00292
2445	132.23991	335	320.82999	0.00299
2446	132.28992	333	316.67001	0.003
2447	132.3399	322	312.10001	0.00311
2448	132.38991	323	307.57999	0.0031
2449	132.43991	311	303.45001	0.00322
2450	132.48991	313	299.95001	0.00319
2451	132.53992	310	297.20001	0.00323
2452	132.5899	302	295.28	0.00331
2453	132.63991	312	294.16	0.00321
2454	132.68991	302	293.72	0.00331
2455	132.73991	313	293.79999	0.00319
2456	132.78992	305	294.16	0.00328
2457	132.8399	311	294.5	0.00322
2458	132.88991	321	294.54001	0.00312
2459	132.93991	311	294.04001	0.00322
2460	132.98991	297	292.92001	0.00337
2461	133.03992	291	291.23999	0.00344
2462	133.0899	289	289.17001	0.00346
2463	133.13991	290	286.92999	0.00345
2464	133.18991	289	284.69	0.00346
2465	133.23991	285	282.57999	0.00351
2466	133.28992	280	280.70001	0.00357
2467	133.3399	270	279.10999	0.0037
2468	133.38991	276	277.79999	0.00362
2469	133.43991	276	276.76999	0.00362
2470	133.48991	276	275.98999	0.00362
2471	133.53992	272	275.41	0.00368
2472	133.5899	278	274.98001	0.0036
2473	133.63991	285	274.67001	0.00351
2474	133.68991	269	274.44	0.00372
2475	133.73991	265	274.28	0.00377
2476	133.78992	275	274.14999	0.00364
2477	133.8399	273	274.04001	0.00366
2478	133.88991	271	273.95999	0.00369
2479	133.93991	272	273.88	0.00368
2480	133.98991	268	273.82001	0.00373
2481	134.03992	269	273.76999	0.00372
2482	134.0899	271	273.72	0.00369
2483	134.13991	267	273.67001	0.00375
2484	134.18991	264	273.63	0.00379
2485	134.23991	264	273.60001	0.00379
2486	134.28992	271	273.56	0.00369
2487	134.3399	275	273.51999	0.00364
2488	134.38991	272	273.48001	0.00368
2489	134.43991	273	273.44	0.00366
2490	134.48991	274	273.39999	0.00365
2491	134.53992	276	273.37	0.00362
2492	134.5899	276	273.34	0.00362
2493	134.63991	273	273.31	0.00366
2494	134.68991	267	273.28	0.00375
2495	134.73991	271	273.25	0.00369
2496	134.78992	274	273.22	0.00365
2497	134.8399	276	273.20001	0.00362
2498	134.88991	275	273.17999	0.00364
2499	134.93991	273	273.16	0.00366
2500	134.98991	258	273.13	0.00388
2501	135.03992	270	273.12	0.0037
2502	135.0899	263	273.10001	0.0038
2503	135.13991	268	273.07999	0.00373
2504	135.18991	266	273.06	0.00376
2505	135.23991	268	273.04999	0.00373
2506	135.28992	270	273.04001	0.0037
2507	135.3399	267	273.01999	0.00375
2508	135.38991	273	273.01001	0.00366
2509	135.43991	272	273	0.00368
2510	135.48991	277	272.98999	0.00361
2511	135.53992	270	272.98001	0.0037
2512	135.5899	272	272.98001	0.00368
2513	135.63991	271	272.97	0.00369
2514	135.68991	274	272.97	0.00365
2515	135.73991	266	272.95999	0.00376
2516	135.78992	264	272.95999	0.00379
2517	135.8399	269	272.95999	0.00372
2518	135.88991	280	272.95999	0.00357
2519	135.93991	268	272.95999	0.00373
2520	135.98991	269	272.95999	0.00372
2521	136.03992	273	272.97	0.00366
2522	136.0899	277	272.98001	0.00361
2523	136.13991	278	272.98001	0.0036
2524	136.18991	284	272.98999	0.00352
2525	136.23991	274	273.01001	0.00365
2526	136.28992	264	273.01999	0.00379
2527	136.3399	266	273.04001	0.00376
2528	136.38991	273	273.04999	0.00366
2529	136.43991	265	273.07999	0.00377
2530	136.48991	269	273.10001	0.00372
2531	136.53992	274	273.13	0.00365
2532	136.5899	269	273.16	0.00372
2533	136.63991	273	273.19	0.00366
2534	136.68991	276	273.23001	0.00362
2535	136.73991	269	273.26999	0.00372
2536	136.78992	259	273.35001	0.00386
2537	136.8399	268	273.53	0.00373
2538	136.88991	263	273.70999	0.0038
2539	136.93991	267	273.91	0.00375
2540	136.98991	274	274.10999	0.00365
2541	137.03992	275	274.31	0.00364
2542	137.0899	273	274.53	0.00366
2543	137.13991	274	274.76001	0.00365
2544	137.18991	277	274.98999	0.00361
2545	137.23991	275	275.23999	0.00364
2546	137.28992	274	275.51001	0.00365
2547	137.3399	276	275.79001	0.00362
2548	137.38991	272	276.09	0.00368
2549	137.43991	268	276.42999	0.00373
2550	137.48991	278	276.79001	0.0036
2551	137.53992	277	277.20999	0.00361
2552	137.5899	270	277.70001	0.0037
2553	137.63991	270	278.29001	0.0037
2554	137.68991	272	279.01001	0.00368
2555	137.73991	275	279.91	0.00364
2556	137.78992	277	281.07999	0.00361
2557	137.8399	283	282.60001	0.00353
2558	137.88991	289	284.57001	0.00346
2559	137.93991	289	287.12	0.00346
2560	137.98991	285	290.39001	0.00351
2561	138.03992	286	294.51001	0.0035
2562	138.0899	304	299.60001	0.00329
2563	138.13991	313	305.76001	0.00319
2564	138.18991	315	313.01001	0.00317
2565	138.23991	320	321.32999	0.00313
2566	138.28992	338	330.60001	0.00296
2567	138.3399	360	340.56	0.00278
2568	138.38991	361	350.84	0.00277
2569	138.43991	377	360.95999	0.00265
2570	138.48991	383	370.31	0.00261
2571	138.53992	379	378.29001	0.00264
2572	138.5899	385	384.39999	0.0026
2573	138.63991	385	388.29999	0.0026
2574	138.68991	380	389.79001	0.00263
2575	138.73991	373	388.81	0.00268
2576	138.78992	368	385.37	0.00272
2577	138.8399	359	379.64999	0.00279
2578	138.88991	337	372.04999	0.00297
2579	138.93991	317	363.14999	0.00315
2580	138.98991	317	353.63	0.00315
2581	139.03992	307	344.12	0.00326
2582	139.0899	302	335.14999	0.00331
2583	139.13991	299	327.16	0.00334
2584	139.18991	284	320.39999	0.00352
2585	139.23991	292	315.07001	0.00342
2586	139.28992	294	311.25	0.0034
2587	139.3399	288	308.89999	0.00347
2588	139.38991	295	307.97	0.00339
2589	139.43991	285	308.29001	0.00351
2590	139.48991	294	309.66	0.0034
2591	139.53992	294	311.85001	0.0034
2592	139.5899	302	314.54999	0.00331
2593	139.63991	305	317.45999	0.00328
2594	139.68991	306	320.22	0.00327
2595	139.73991	299	322.48001	0.00334
2596	139.78992	310	323.89001	0.00323
2597	139.8399	307	324.22	0.00326
2598	139.88991	309	323.35999	0.00324
2599	139.93991	305	321.39001	0.00328
2600	139.98991	293	318.5	0.00341
2601	140.03992	292	314.98001	0.00342
2602	140.0899	292	311.10001	0.00342
2603	140.13991	281	307.13	0.00356
2604	140.18991	281	279.17999	0.00356
2605	140.23991	293	279.29999	0.00341
2606	140.28992	283	279.41	0.00353
2607	140.3399	280	279.51999	0.00357
2608	140.38991	274	279.64001	0.00365
2609	140.43991	270	279.72	0.0037
2610	140.48991	279	279.75	0.00358
2611	140.53992	277	279.78	0.00361
2612	140.5899	280	279.79999	0.00357
2613	140.63991	278	279.82999	0.0036
2614	140.68991	285	279.85999	0.00351
2615	140.73991	287	279.89001	0.00348
2616	140.78992	286	279.92001	0.0035
2617	140.8399	278	279.94	0.0036
2618	140.88991	285	279.97	0.00351
2619	140.93991	290	280	0.00345
2620	140.98991	285	280.03	0.00351
2621	141.03992	281	280.06	0.00356
2622	141.0899	280	280.07999	0.00357
2623	141.13991	277	280.10999	0.00361
2624	141.18991	284	280.14001	0.00352
2625	141.23991	285	280.17001	0.00351
2626	141.28992	284	280.20001	0.00352
2627	141.3399	273	280.22	0.00366
2628	141.38991	279	280.25	0.00358
2629	141.43991	281	280.28	0.00356
2630	141.48991	277	280.31	0.00361
2631	141.53992	273	280.34	0.00366
2632	141.5899	277	280.35999	0.00361
2633	141.63991	282	280.39001	0.00355
2634	141.68991	286	280.42001	0.0035
2635	141.73991	282	280.45001	0.00355
2636	141.78992	272	280.5	0.00368
2637	141.8399	273	280.59	0.00366
2638	141.88991	266	280.69	0.00376
2639	141.93991	278	280.79001	0.0036
2640	141.98991	283	280.89001	0.00353
2641	142.03992	282	280.98999	0.00355
2642	142.0899	278	281.09	0.0036
2643	142.13991	279	281.17999	0.00358
2644	142.18991	289	281.28	0.00346
2645	142.23991	286	281.38	0.0035
2646	142.28992	287	281.48001	0.00348
2647	142.3399	285	281.57999	0.00351
2648	142.38991	289	281.67999	0.00346
2649	142.43991	285	281.76999	0.00351
2650	142.48991	292	281.87	0.00342
2651	142.53992	297	281.97	0.00337
2652	142.5899	292	282.07001	0.00342
2653	142.63991	291	282.17001	0.00344
2654	142.68991	293	282.26999	0.00341
2655	142.73991	291	282.35999	0.00344
2656	142.78992	293	282.45999	0.00341
2657	142.8399	295	282.56	0.00339
2658	142.88991	286	282.66	0.0035
2659	142.93991	285	282.76001	0.00351
2660	142.98991	283	282.85999	0.00353
2661	143.03992	288	282.95001	0.00347
2662	143.0899	285	283.04999	0.00351
2663	143.13991	283	283.14999	0.00353
2664	143.18991	293	283.25	0.00341
2665	143.23991	300	283.35001	0.00333
2666	143.28992	300	283.45001	0.00333
2667	143.3399	290	283.54001	0.00345
2668	143.38991	287	283.64001	0.00348
2669	143.43991	298	283.73999	0.00336
2670	143.48991	305	283.84	0.00328
2671	143.53992	299	283.94	0.00334
2672	143.5899	306	284.04001	0.00327
2673	143.63991	315	284.13	0.00317
2674	143.68991	312	284.23001	0.00321
2675	143.73991	320	284.32999	0.00313
2676	143.78992	322	284.42999	0.00311
2677	143.8399	327	284.53	0.00306
2678	143.88991	324	284.63	0.00309
2679	143.93991	325	284.72	0.00308
2680	143.98991	329	284.82001	0.00304
2681	144.03992	335	284.92001	0.00299
2682	144.0899	332	285.01999	0.00301
2683	144.13991	321	285.12	0.00312
2684	144.18991	329	285.22	0.00304
2685	144.23991	323	285.31	0.0031
2686	144.28992	329	285.41	0.00304
2687	144.3399	326	285.51001	0.00307
2688	144.38991	332	285.60999	0.00301
2689	144.43991	334	285.70999	0.00299
2690	144.48991	322	285.81	0.00311
2691	144.53992	325	285.89999	0.00308
2692	144.5899	327	286	0.00306
2693	144.63991	326	286.10001	0.00307
2694	144.68991	331	286.20001	0.00302
2695	144.73991	327	286.29999	0.00306
2696	144.78992	321	286.39001	0.00312
2697	144.8399	322	286.48999	0.00311
2698	144.88991	314	286.59	0.00318
2699	144.93991	309	286.69	0.00324
2700	144.98991	308	286.79001	0.00325
2701	145.03992	307	286.89001	0.00326
2702	145.0899	312	286.98001	0.00321
2703	145.13991	296	287.07999	0.00338
2704	145.18991	295	287.17999	0.00339
2705	145.23991	306	287.28	0.00327
2706	145.28992	303	287.38	0.0033
2707	145.3399	289	287.48001	0.00346
2708	145.38991	297	287.57001	0.00337
2709	145.43991	296	287.67001	0.00338
2710	145.48991	299	287.76999	0.00334
2711	145.53992	289	287.87	0.00346
2712	145.5899	293	287.97	0.00341
2713	145.63991	289	288.07001	0.00346
2714	145.68991	293	288.16	0.00341
2715	145.73991	290	288.26001	0.00345
2716	145.78992	294	288.35999	0.0034
2717	145.8399	302	288.45999	0.00331
2718	145.88991	289	288.56	0.00346
2719	145.93991	291	288.66	0.00344
2720	145.98991	291	288.75	0.00344
2721	146.03992	292	288.85001	0.00342
2722	146.0899	284	288.95001	0.00352
2723	146.13991	291	289.04999	0.00344
2724	146.18991	293	289.14999	0.00341
2725	146.23991	284	289.25	0.00352
2726	146.28992	281	289.34	0.00356
2727	146.3399	285	289.44	0.00351
2728	146.38991	291	289.54001	0.00344
2729	146.43991	291	289.72	0.00344
2730	146.48991	295	289.89999	0.00339
2731	146.53992	295	290.07001	0.00339
2732	146.5899	294	290.25	0.0034
2733	146.63991	299	290.42999	0.00334
2734	146.68991	286	290.60999	0.0035
2735	146.73991	288	290.79001	0.00347
2736	146.78992	295	290.95999	0.00339
2737	146.8399	294	291.14001	0.0034
2738	146.88991	282	291.32001	0.00355
2739	146.93991	283	291.5	0.00353
2740	146.98991	285	291.67001	0.00351
2741	147.03992	293	291.85001	0.00341
2742	147.0899	293	292.03	0.00341
2743	147.13991	293	292.20999	0.00341
2744	147.18991	288	292.38	0.00347
2745	147.23991	293	292.56	0.00341
2746	147.28992	294	292.73999	0.0034
2747	147.3399	297	292.92001	0.00337
2748	147.38991	298	293.09	0.00336
2749	147.43991	295	293.26999	0.00339
2750	147.48991	304	293.45001	0.00329
2751	147.53992	295	293.63	0.00339
2752	147.5899	280	293.81	0.00357
2753	147.63991	290	293.98001	0.00345
2754	147.68991	295	294.16	0.00339
2755	147.73991	297	294.34	0.00337
2756	147.78992	298	294.51999	0.00336
2757	147.8399	293	294.69	0.00341
2758	147.88991	296	294.87	0.00338
2759	147.93991	295	295.04999	0.00339
2760	147.98991	298	295.23001	0.00336
2761	148.03992	294	295.39999	0.0034
2762	148.0899	306	295.57999	0.00327
2763	148.13991	302	295.76001	0.00331
2764	148.18991	299	295.94	0.00334
2765	148.23991	299	296.10999	0.00334
2766	148.28992	302	296.29001	0.00331
2767	148.3399	303	296.47	0.0033
2768	148.38991	298	296.64999	0.00336
2769	148.43991	299	296.82999	0.00334
2770	148.48991	294	297	0.0034
2771	148.53992	289	297.17999	0.00346
2772	148.5899	295	297.35999	0.00339
2773	148.63991	298	297.54001	0.00336
2774	148.68991	297	297.70999	0.00337
2775	148.73991	297	297.89001	0.00337
2776	148.78992	299	298.07001	0.00334
2777	148.8399	297	298.25	0.00337
2778	148.88991	309	298.42001	0.00324
2779	148.93991	300	298.60001	0.00333
2780	148.98991	303	298.78	0.0033
2781	149.03992	297	298.95999	0.00337
2782	149.0899	302	299.14001	0.00331
2783	149.13991	308	299.31	0.00325
2784	149.18991	306	299.48999	0.00327
2785	149.23991	299	299.67001	0.00334
2786	149.28992	305	299.85001	0.00328
2787	149.3399	301	300.01999	0.00332
2788	149.38991	296	300.20001	0.00338
2789	149.43991	286	300.38	0.0035
2790	149.48991	297	300.56	0.00337
2791	149.53992	303	300.73001	0.0033
2792	149.5899	302	300.92001	0.00331
2793	149.63991	298	301.13	0.00336
2794	149.68991	305	301.32999	0.00328
2795	149.73991	309	301.54001	0.00324
2796	149.78992	302	301.75	0.00331
2797	149.8399	306	301.95999	0.00327
2798	149.88991	324	302.17001	0.00309
2799	149.93991	316	302.38	0.00316
2800	149.98991	296	302.59	0.00338

# The following lines are used to test the character set of files sent by
# network email or other means. They are not part of the CIF data set.
# abcdefghijklmnopqrstuvwxyzABCDEFGHIJKLMNOPQRSTUVWXYZ0123456789
# !@#$%^&*()_+{}:"~<>?|\-=[];'`,./  


data_SrLaZnRuO6_1173K               
 
#=============================================================================
 
# 5. CHEMICAL DATA
 
_chemical_name_systematic
; ?
;
_chemical_name_common             ?
_chemical_formula_moiety          ?
_chemical_formula_structural      ?
_chemical_formula_analytical      ?
_chemical_formula_iupac           ?
_chemical_formula_sum             LaO6RuSrZn
_chemical_formula_weight          ?
_chemical_melting_point           ?
_chemical_compound_source         ?       # for minerals and 
                                          # natural products
 
loop_
    _atom_type_symbol               
    _atom_type_scat_length_neutron      
    _atom_type_scat_source          
ZN     0.56800 V.F._Sears_Neutron_News_3_26_(1992)
RU     0.70300 V.F._Sears_Neutron_News_3_26_(1992)
SR     0.70200 V.F._Sears_Neutron_News_3_26_(1992)
LA     0.82400 V.F._Sears_Neutron_News_3_26_(1992)
O      0.58030 V.F._Sears_Neutron_News_3_26_(1992)
 
#=============================================================================
 
# 6. POWDER SPECIMEN AND CRYSTAL DATA
 
_symmetry_cell_setting                Trigonal
_symmetry_space_group_name_H-M       'R -3'
_symmetry_space_group_name_Hall      '-R 3'
 
loop_
    _symmetry_equiv_pos_as_xyz   #<--must include 'x,y,z'
'x,y,z'
'-y,x-y,z'
'-x+y,-x,z'
'-x,-y,-z'
'y,-x+y,-z'
'x-y,x,-z'
'x+2/3,y+1/3,z+1/3'
'-y+2/3,x-y+1/3,z+1/3'
'-x+y+2/3,-x+1/3,z+1/3'
'-x+2/3,-y+1/3,-z+1/3'
'y+2/3,-x+y+1/3,-z+1/3'
'x-y+2/3,x+1/3,-z+1/3'
'x+1/3,y+2/3,z+2/3'
'-y+1/3,x-y+2/3,z+2/3'
'-x+y+1/3,-x+2/3,z+2/3'
'-x+1/3,-y+2/3,-z+2/3'
'y+1/3,-x+y+2/3,-z+2/3'
'x-y+1/3,x+2/3,-z+2/3'
 
_cell_length_a                       5.65403(11)
_cell_length_b                       5.65403(11)
_cell_length_c                       13.7860(4)
_cell_angle_alpha                    90.00000
_cell_angle_beta                     90.00000
_cell_angle_gamma                    120.00000
_cell_volume                         381.668(16)
_cell_formula_units_Z                ?
_cell_measurement_temperature        1173
_cell_special_details
; ?
;
# The next three fields give the specimen dimensions in mm.  The equatorial
# plane contains the incident and diffracted beam.
 
_pd_spec_size_axial               ?       # perpendicular to 
                                          # equatorial plane
_pd_spec_size_equat               ?       # parallel to 
                                          # scattering vector
                                          # in transmission
_pd_spec_size_thick               ?       # parallel to 
                                          # scattering vector
                                          # in reflection
 
# The next five fields are character fields that describe the specimen.
 
_pd_spec_mounting                         # This field should be
                                          # used to give details of the 
                                          # container.
; ?
;
_pd_spec_mount_mode               ?       # options are 'reflection'
                                          # or 'transmission'
_pd_spec_shape                    ?       # options are 'cylinder' 
                                          # 'flat_sheet' or 'irregular'
_pd_char_particle_morphology      ?
_pd_char_colour                   ?       # use ICDD colour descriptions
 
# The following three fields describe the preparation of the specimen.
# The cooling rate is in K/min.  The pressure at which the sample was 
# prepared is in kPa.  The temperature of preparation is in K.        
 
_pd_prep_cool_rate                ?
_pd_prep_pressure                 ?
_pd_prep_temperature              ?
 
# The next four fields are normally only needed for transmission experiments.
 
_exptl_absorpt_coefficient_mu        ?
_exptl_absorpt_correction_type       ?
_exptl_absorpt_process_details       ?
_exptl_absorpt_correction_T_min      ?
_exptl_absorpt_correction_T_max      ?
 
#=============================================================================
 
# 7. EXPERIMENTAL DATA
 
_exptl_special_details
; ?
;
 
# The following item is used to identify the equipment used to record 
# the powder pattern when the diffractogram was measured at a laboratory 
# other than the authors' home institution, e.g. when neutron or synchrotron
# radiation is used.
 
_pd_instr_location
; ?
;
_pd_calibration_special_details           # description of the method used
                                          # to calibrate the instrument
; ?
;
 
_diffrn_ambient_temperature          ?
_diffrn_source                   'nuclear reactor' 
_diffrn_radiation_type           neutron
_diffrn_radiation_wavelength           1.59400
_diffrn_source_type               D2B  # Put here the diffractometer and site
 
_diffrn_radiation_monochromator      ?
_diffrn_measurement_device_type      ?
_diffrn_measurement_method           ?
_diffrn_detector_area_resol_mean     ?   # Not in version 2.0.1
_diffrn_detector                     ?
_diffrn_detector_type                ?   # make or model of detector
_pd_meas_scan_method                 ?   # options are 'step', 'cont',
                                         # 'tof', 'fixed' or
                                         # 'disp' (= dispersive)
_pd_meas_special_details
;  ?
;
 
#  The following four items give details of the measured (not processed)
#  powder pattern.  Angles are in degrees.
 
_pd_meas_number_of_points         3200
_pd_meas_2theta_range_min         0.00000
_pd_meas_2theta_range_max         159.95000
_pd_meas_2theta_range_inc         0.050000
 
#=============================================================================
 
# 8. REFINEMENT DATA
 
_refine_special_details
; ?
;
 
# Use the next field to give any special details about the fitting of the
# powder pattern.
 
_pd_proc_ls_special_details
; ?
;
 
# The next three items are given as text.
 
_pd_proc_ls_profile_function      ?
_pd_proc_ls_background_function   ?
_pd_proc_ls_pref_orient_corr
; ?
;
 
#  The following profile R-factors are NOT CORRECTED for background
#  The sum is extended to all non-excluded points.
#  These are the current CIF standard
 
_pd_proc_ls_prof_R_factor                3.7194
_pd_proc_ls_prof_wR_factor               5.3474
_pd_proc_ls_prof_wR_expected             5.7848
  
#  Items related to LS refinement
 
_refine_ls_R_I_factor                 9.6021
_refine_ls_number_reflns                   181
_refine_ls_number_parameters                10
_refine_ls_number_restraints                 0
 
# The following four items apply to angular dispersive measurements.
# 2theta minimum, maximum and increment (in degrees) are for the 
# intensities used in the refinement.
 
_pd_proc_2theta_range_min                0.1899
_pd_proc_2theta_range_max              160.1399
_pd_proc_2theta_range_inc              0.050000
_pd_proc_wavelength                    1.594000
 
_pd_block_diffractogram_id   LaZn1173K  # The id used for the block containing
                                     # the powder pattern profile (section 11)
 
# Give appropriate details in the next two text fields.
 
_pd_proc_info_excluded_regions    ?
_pd_proc_info_data_reduction      ?
 
# The following items are used to identify the programs used.
 
_computing_data_collection           ?
_computing_structure_solution        ?
_computing_structure_refinement      FULLPROF
_computing_molecular_graphics        ?
_computing_publication_material      ?
 
#=============================================================================
 
# 9. ATOMIC COORDINATES AND DISPLACEMENT PARAMETERS
 
loop_
    _atom_site_label
    _atom_site_fract_x
    _atom_site_fract_y
    _atom_site_fract_z
    _atom_site_U_iso_or_equiv
    _atom_site_occupancy
    _atom_site_adp_type              # Not in version 2.0.1
    _atom_site_type_symbol
 Zn1   0.00000     0.00000     0.50000     0.0167(4)   1.00000    Uiso ZN  
 Ru1   0.00000     0.00000     0.00000     0.0167(4)   1.00000    Uiso RU  
 Sr1   0.00000     0.00000     0.2523(9)   0.0341(5)   0.50000    Uiso SR  
 La1   0.00000     0.00000     0.2523(9)   0.0341(5)   0.50000    Uiso LA  
 O1   0.6606(16)  0.8724(9)   0.0778(6)   0.0467(4)   0.99998    Uiso O   
 
# Note: if the displacement parameters were refined anisotropically
# the U matrices should be given as for single-crystal studies.
 
#=============================================================================
 
# 10. DISTANCES AND ANGLES / MOLECULAR GEOMETRY 
 
_geom_special_details                ?
 
loop_
    _geom_bond_atom_site_label_1  
    _geom_bond_atom_site_label_2  
    _geom_bond_site_symmetry_1    
    _geom_bond_site_symmetry_2    
    _geom_bond_distance           
    _geom_bond_publ_flag          
    ?   ?   ?   ?   ?   ?
 
loop_
    _geom_contact_atom_site_label_1 
    _geom_contact_atom_site_label_2 
    _geom_contact_distance          
    _geom_contact_site_symmetry_1   
    _geom_contact_site_symmetry_2   
    _geom_contact_publ_flag         
    ?   ?   ?   ?   ?   ?
 
loop_
_geom_angle_atom_site_label_1 
_geom_angle_atom_site_label_2 
_geom_angle_atom_site_label_3 
_geom_angle_site_symmetry_1   
_geom_angle_site_symmetry_2   
_geom_angle_site_symmetry_3   
_geom_angle                   
_geom_angle_publ_flag         
?   ?   ?   ?   ?   ?   ?   ?
 
loop_
_geom_torsion_atom_site_label_1 
_geom_torsion_atom_site_label_2 
_geom_torsion_atom_site_label_3 
_geom_torsion_atom_site_label_4 
_geom_torsion_site_symmetry_1   
_geom_torsion_site_symmetry_2   
_geom_torsion_site_symmetry_3   
_geom_torsion_site_symmetry_4   
_geom_torsion                   
_geom_torsion_publ_flag         
?   ?   ?   ?   ?   ?   ?   ?   ?   ?
 
loop_
_geom_hbond_atom_site_label_D 
_geom_hbond_atom_site_label_H 
_geom_hbond_atom_site_label_A 
_geom_hbond_site_symmetry_D   
_geom_hbond_site_symmetry_H   
_geom_hbond_site_symmetry_A   
_geom_hbond_distance_DH       
_geom_hbond_distance_HA       
_geom_hbond_distance_DA       
_geom_hbond_angle_DHA         
_geom_hbond_publ_flag         
?   ?   ?   ?   ?   ?   ?   ?   ?   ?   ?
 
#=============================================================================
 
#=============================================================================
# Additional structures (last six sections and associated data_? identifiers) 
# may be added at this point.                                                 
#=============================================================================
 
# The following lines are used to test the character set of files sent by     
# network email or other means. They are not part of the CIF data set.        
# abcdefghijklmnopqrstuvwxyzABCDEFGHIJKLMNOPQRSTUVWXYZ0123456789              
# !@#$%^&*()_+{}:"~<>?|\-=[];'`,./




# powder data simulated using PLATON:

data_SrLaZnRuO6_1173K_simulated_1.59400

_publcif_pd_cifplot 'simulated 2021-03-25'

