data_KNN05at300K
_pd_block_id     KNN05at300K
_pd_proc_2theta_range_min  19 
_pd_proc_2theta_range_max 141
_pd_proc_ls_background_function   'Chebychev with six coefficients' 

loop_
      
_pd_data_point_id                           
      
_pd_meas_2theta_corrected     
_pd_meas_intensity_total                     
      
_pd_calc_intensity_total                     
      
_pd_proc_ls_weight
1	19	64.659	69.23733	0.015465751
2	19.05	68.989	69.23655	0.014495064
3	19.1	66.065	69.23602	0.015136608
4	19.15	63.128	69.23577	0.015840831
5	19.2	64.527	69.23584	0.015497389
6	19.25	69.266	69.23631	0.014437098
7	19.3	67.71	69.23728	0.014768867
8	19.35	69.167	69.23895	0.014457762
9	19.4	69.643	69.24176	0.014358945
10	19.45	70.257	69.24671	0.014233457
11	19.5	67.453	69.25597	0.014825138
12	19.55	67.756	69.27396	0.014758841
13	19.6	69.02	69.30907	0.014488554
14	19.65	68.624	69.3756	0.014572161
15	19.7	72.211	69.49537	0.013848306
16	19.75	68.459	69.69727	0.014607283
17	19.8	71.936	70.01304	0.013901246
18	19.85	67.364	70.46795	0.014844724
19	19.9	68.247	71.06733	0.014652659
20	19.95	63.372	71.78285	0.01577984
21	20	70.412	72.54493	0.014202125
22	20.05	67.129	73.24727	0.014896691
23	20.1	68.2	73.76621	0.014662757
24	20.15	65.408	73.9946	0.01528865
25	20.2	68.018	73.88161	0.014701991
26	20.25	69.21	73.45566	0.014448779
27	20.3	66.54	72.81038	0.015028554
28	20.35	65.594	72.06699	0.015245297
29	20.4	62.927	71.33961	0.01589143
30	20.45	67.628	70.70844	0.014786775
31	20.5	67.673	70.2142	0.014776942
32	20.55	67.65	69.86217	0.014781966
33	20.6	69.058	69.63288	0.014480582
34	20.65	70.229	69.49744	0.014239132
35	20.7	67.695	69.42432	0.01477214
36	20.75	68.03	69.38994	0.014699397
37	20.8	65.557	69.37826	0.015253901
38	20.85	64.597	69.37915	0.015480595
39	20.9	66.222	69.38703	0.015100722
40	20.95	67.492	69.39908	0.014816571
41	21	63.843	69.41405	0.015663424
42	21.05	66.663	69.43143	0.015000825
43	21.1	65.773	69.45109	0.015203807
44	21.15	66.041	69.47306	0.015142109
45	21.2	69.21	69.49745	0.014448779
46	21.25	71.449	69.52443	0.013995997
47	21.3	68.872	69.5542	0.014519689
48	21.35	68.894	69.587	0.014515052
49	21.4	67.603	69.6231	0.014792243
50	21.45	65.436	69.66281	0.015282108
51	21.5	67.462	69.70651	0.01482316
52	21.55	65.458	69.75462	0.015276971
53	21.6	68.137	69.80761	0.014676314
54	21.65	65.201	69.86603	0.015337188
55	21.7	64.428	69.93052	0.015521202
56	21.75	67.53	70.00181	0.014808233
57	21.8	71.757	70.08076	0.013935923
58	21.85	68.166	70.16834	0.01467007
59	21.9	68.781	70.26573	0.014538899
60	21.95	72.126	70.37428	0.013864626
61	22	74.689	70.49558	0.013388852
62	22.05	74.26	70.63153	0.0134662
63	22.1	75.451	70.78439	0.013253635
64	22.15	77.908	70.95688	0.012835652
65	22.2	82.665	71.15227	0.012097018
66	22.25	85.202	71.37455	0.011736814
67	22.3	88.192	71.62866	0.011338897
68	22.35	90.464	71.92081	0.011054121
69	22.4	92.226	72.25929	0.010842929
70	22.45	93.745	72.65629	0.010667236
71	22.5	101.149	73.13344	0.009886405
72	22.55	100.501	73.73242	0.00995015
73	22.6	105.1	74.54311	0.009514748
74	22.65	110.848	75.77173	0.009021363
75	22.7	121.46	77.85761	0.008233163
76	22.75	128.051	81.68154	0.007809388
77	22.8	140.081	88.8321	0.007138727
78	22.85	159.981	101.9275	0.006250742
79	22.9	177.681	124.74215	0.005628064
80	22.95	206.149	161.93571	0.00485086
81	23	236.051	218.11364	0.004236373
82	23.05	286.694	296.18205	0.00348804
83	23.1	345.94	395.36559	0.002890675
84	23.15	430.702	509.68161	0.002321791
85	23.2	532.31	627.6773	0.001878605
86	23.25	633.664	733.98189	0.001578123
87	23.3	714.794	812.82485	0.001399004
88	23.35	783.696	853.14025	0.001276005
89	23.4	817.731	852.67259	0.001222896
90	23.45	782.323	817.25467	0.001278244
91	23.5	715.149	756.07538	0.00139831
92	23.55	649.425	677.60755	0.001539824
93	23.6	581.112	588.59257	0.001720839
94	23.65	505.613	495.20285	0.001977797
95	23.7	427.946	403.7958	0.002336743
96	23.75	340.367	320.16725	0.002938005
97	23.8	277.988	248.57566	0.003597278
98	23.85	228.472	191.28729	0.004376904
99	23.9	189.917	148.52347	0.005265458
100	23.95	151.837	118.78043	0.00658601
101	24	132.598	99.48227	0.007541592
102	24.05	112.772	87.74301	0.008867449
103	24.1	95.637	80.97325	0.010456204
104	24.15	83.247	77.19388	0.012012445
105	24.2	79.087	75.08006	0.012644303
106	24.25	73.559	73.83382	0.01359453
107	24.3	74.749	73.02663	0.013378105
108	24.35	69.017	72.44372	0.014489184
109	24.4	69.969	71.98416	0.014292044
110	24.45	70.532	71.60141	0.014177962
111	24.5	69.668	71.27299	0.014353792
112	24.55	69.165	70.98679	0.01445818
113	24.6	69.45	70.746	0.014398848
114	24.65	72.083	70.52265	0.013872897
115	24.7	66.651	70.32355	0.015003526
116	24.75	64.833	70.14516	0.015424244
117	24.8	66.481	69.98456	0.015041892
118	24.85	64.616	69.84298	0.015476043
119	24.9	68.024	69.72094	0.014700694
120	24.95	66.69	69.60086	0.014994752
121	25	66.302	69.49104	0.015082501
122	25.05	67.068	69.39026	0.01491024
123	25.1	69.259	69.2975	0.014438557
124	25.15	68.132	69.21187	0.014677391
125	25.2	69.694	69.13263	0.014348437
126	25.25	65.695	69.05914	0.015221859
127	25.3	67.26	68.99084	0.014867678
128	25.35	70.82	68.92728	0.014120305
129	25.4	68.555	68.86811	0.014586828
130	25.45	64.463	68.81315	0.015512775
131	25.5	64.806	68.76248	0.01543067
132	25.55	67.743	68.71683	0.014761673
133	25.6	67.693	68.67806	0.014772576
134	25.65	66.081	68.65019	0.015132943
135	25.7	62.905	68.64064	0.015896988
136	25.75	67.403	68.66134	0.014836135
137	25.8	71.115	68.72884	0.014061731
138	25.85	66.013	68.86211	0.015148531
139	25.9	67.524	69.07696	0.014809549
140	25.95	72.167	69.3776	0.013856749
141	26	71.569	69.74765	0.01397253
142	26.05	70.515	70.14491	0.01418138
143	26.1	64.634	70.50375	0.015471733
144	26.15	63.446	70.74737	0.015761435
145	26.2	66.876	70.81082	0.014953047
146	26.25	69.06	70.66957	0.014480162
147	26.3	69.233	70.35321	0.014443979
148	26.35	69.155	69.92934	0.01446027
149	26.4	63.504	69.47455	0.01574704
150	26.45	63.42	69.05231	0.015767897
151	26.5	67.794	68.7019	0.014750568
152	26.55	63.859	68.43697	0.0156595
153	26.6	63.163	68.25143	0.015832054
154	26.65	64.18	68.12846	0.015581178
155	26.7	64.408	68.04893	0.015526022
156	26.75	63.424	67.99647	0.015766902
157	26.8	62.262	67.95944	0.016061161
158	26.85	62.824	67.93084	0.015917484
159	26.9	67.663	67.90627	0.014779126
160	26.95	73.751	67.88393	0.013559138
161	27	67.222	67.86289	0.014876082
162	27.05	70.114	67.84273	0.014262487
163	27.1	59.836	67.82325	0.016712347
164	27.15	60.758	67.80434	0.016458738
165	27.2	62.447	67.78595	0.01601358
166	27.25	65.395	67.76801	0.015291689
167	27.3	68.971	67.7505	0.014498847
168	27.35	69.243	67.73338	0.014441893
169	27.4	65.446	67.71663	0.015279773
170	27.45	67.863	67.70021	0.01473557
171	27.5	64.739	67.68412	0.01544664
172	27.55	64.797	67.66832	0.015432813
173	27.6	67.119	67.65282	0.014898911
174	27.65	68.81	67.63758	0.014532771
175	27.7	68.711	67.62261	0.01455371
176	27.75	66.899	67.60789	0.014947907
177	27.8	64.509	67.59341	0.015501713
178	27.85	71.979	67.57917	0.013892941
179	27.9	70.066	67.56515	0.014272258
180	27.95	69.834	67.55134	0.014319672
181	28	64.762	67.53776	0.015441154
182	28.05	68.898	67.52438	0.014514209
183	28.1	63.144	67.51121	0.015836817
184	28.15	65.31	67.49825	0.015311591
185	28.2	66.74	67.4855	0.014983518
186	28.25	63.028	67.47297	0.015865964
187	28.3	68.938	67.46069	0.014505788
188	28.35	63.318	67.4491	0.015793297
189	28.4	70.804	67.44014	0.014123496
190	28.45	70.728	67.42939	0.014138672
191	28.5	64.939	67.41978	0.015399067
192	28.55	66.445	67.41209	0.015050041
193	28.6	67.692	67.40929	0.014772794
194	28.65	69.966	67.40683	0.014292656
195	28.7	64.047	67.40754	0.015613534
196	28.75	67.363	67.41089	0.014844945
197	28.8	65.746	67.41538	0.015210051
198	28.85	69.019	67.41867	0.014488764
199	28.9	69.486	67.41798	0.014391388
200	28.95	66.899	67.41096	0.014947907
201	29	66.712	67.39673	0.014989807
202	29.05	68.611	67.37642	0.014574922
203	29.1	66.216	67.35257	0.01510209
204	29.15	62.632	67.32797	0.015966279
205	29.2	59.674	67.30486	0.016757717
206	29.25	64.258	67.28459	0.015562265
207	29.3	64.461	67.26756	0.015513256
208	29.35	67.953	67.25351	0.014716054
209	29.4	66.536	67.2418	0.015029458
210	29.45	67.654	67.23176	0.014781092
211	29.5	65.347	67.22282	0.015302921
212	29.55	65.983	67.21461	0.015155419
213	29.6	68.804	67.20689	0.014534039
214	29.65	67.144	67.19954	0.014893364
215	29.7	67.113	67.19251	0.014900243
216	29.75	65.447	67.18579	0.015279539
217	29.8	66.677	67.17936	0.014997675
218	29.85	65.882	67.17325	0.015178653
219	29.9	62.851	67.16745	0.015910646
220	29.95	64.665	67.16198	0.015464316
221	30	66.561	67.15686	0.015023813
222	30.05	69.8	67.1521	0.014326648
223	30.1	65.188	67.14771	0.015340247
224	30.15	65.485	67.14372	0.015270673
225	30.2	67.648	67.14014	0.014782403
226	30.25	59.716	67.137	0.016745931
227	30.3	66.18	67.13432	0.015110305
228	30.35	67.034	67.13213	0.014917803
229	30.4	70.177	67.13046	0.014249683
230	30.45	67.155	67.12933	0.014890924
231	30.5	62.092	67.12879	0.016105134
232	30.55	64.066	67.12887	0.015608903
233	30.6	67.23	67.12961	0.014874312
234	30.65	66.999	67.13105	0.014925596
235	30.7	66.775	67.13325	0.014975665
236	30.75	66.464	67.13626	0.015045739
237	30.8	66.312	67.14014	0.015080227
238	30.85	68.244	67.14496	0.014653303
239	30.9	65.586	67.15078	0.015247156
240	30.95	67.741	67.15769	0.014762109
241	31	64.845	67.16579	0.015421389
242	31.05	70.934	67.17516	0.014097612
243	31.1	66.809	67.18592	0.014968043
244	31.15	68.56	67.19819	0.014585764
245	31.2	63.739	67.21212	0.015688982
246	31.25	63.498	67.22785	0.015748528
247	31.3	66.67	67.24557	0.01499925
248	31.35	68.916	67.26547	0.014510418
249	31.4	65.75	67.28778	0.015209125
250	31.45	70.855	67.31275	0.01411333
251	31.5	69.12	67.34067	0.014467593
252	31.55	68.553	67.37187	0.014587254
253	31.6	68.982	67.40675	0.014496535
254	31.65	70.861	67.44573	0.014112135
255	31.7	69.367	67.48933	0.014416077
256	31.75	72.916	67.53815	0.013714411
257	31.8	70.157	67.59289	0.014253745
258	31.85	70.13	67.67788	0.014259233
259	31.9	65.763	67.76558	0.015206119
260	31.95	72.586	67.84385	0.013776761
261	32	67.423	67.93483	0.014831734
262	32.05	69.793	68.04271	0.014328084
263	32.1	70.058	68.15705	0.014273887
264	32.15	66.16	68.28778	0.015114873
265	32.2	66.483	68.43798	0.015041439
266	32.25	72.54	68.61166	0.013785498
267	32.3	72.036	68.81438	0.013881948
268	32.35	70.277	69.05495	0.014229406
269	32.4	72.688	69.34956	0.013757429
270	32.45	73.689	69.73819	0.013570546
271	32.5	77.172	70.29593	0.012958068
272	32.55	78.297	71.14693	0.012771881
273	32.6	82.358	72.59834	0.012142111
274	32.65	86.467	75.16068	0.011565106
275	32.7	86.498	79.62584	0.011560961
276	32.75	92.598	87.04994	0.010799369
277	32.8	104.82	98.58524	0.009540164
278	32.85	114.482	115.13383	0.008734998
279	32.9	131.487	136.90455	0.007605315
280	32.95	153.885	163.0751	0.006498359
281	33	180.15	191.78481	0.00555093
282	33.05	207.218	220.58441	0.004825836
283	33.1	234.071	247.39318	0.004272208
284	33.15	246.26	271.7533	0.004060749
285	33.2	273.834	295.24061	0.003651847
286	33.25	283.07	319.9657	0.003532695
287	33.3	299.869	346.08439	0.00333479
288	33.35	330.188	370.14025	0.003028578
289	33.4	355.004	385.33	0.00281687
290	33.45	367.543	384.13139	0.00272077
291	33.5	359.839	362.7007	0.002779021
292	33.55	321.654	323.604	0.003108931
293	33.6	253.215	274.15915	0.003949213
294	33.65	200.406	222.83385	0.004989871
295	33.7	161.5	176.54903	0.00619195
296	33.75	136.203	139.36593	0.007341982
297	33.8	105.472	112.38409	0.009481189
298	33.85	96.716	94.51413	0.010339551
299	33.9	87.943	83.59357	0.011371002
300	33.95	80.496	77.3407	0.012422978
301	34	74.864	73.90322	0.013357555
302	34.05	74.143	72.01727	0.01348745
303	34.1	68.898	70.92962	0.014514209
304	34.15	72.413	70.23865	0.013809675
305	34.2	69.826	69.74842	0.014321313
306	34.25	70.097	69.36873	0.014265946
307	34.3	69.165	69.05842	0.01445818
308	34.35	69.243	68.79748	0.014441893
309	34.4	68.116	68.57473	0.014680839
310	34.45	73.419	68.38297	0.013620452
311	34.5	62.925	68.21702	0.015891935
312	34.55	63.155	68.07303	0.015834059
313	34.6	65.609	67.9483	0.015241811
314	34.65	66.021	67.84148	0.015146696
315	34.7	67.279	67.75314	0.014863479
316	34.75	69.712	67.6868	0.014344733
317	34.8	66.079	67.65012	0.015133401
318	34.85	65.805	67.65556	0.015196414
319	34.9	69.618	67.71923	0.014364101
320	34.95	66.589	67.85651	0.015017495
321	35	64.001	68.07428	0.015624756
322	35.05	68.485	68.36178	0.014601738
323	35.1	72.334	68.68395	0.013824757
324	35.15	74.532	68.98165	0.013417056
325	35.2	68.437	69.18161	0.014611979
326	35.25	69.104	69.22032	0.014470942
327	35.3	73.273	69.07793	0.013647592
328	35.35	69.92	68.79179	0.014302059
329	35.4	73.389	68.43185	0.01362602
330	35.45	67.173	68.06768	0.014886934
331	35.5	63.49	67.7498	0.015750512
332	35.55	67.283	67.50354	0.014862595
333	35.6	69.102	67.33187	0.014471361
334	35.65	70.185	67.22364	0.014248059
335	35.7	70.107	67.16239	0.014263911
336	35.75	66.967	67.13278	0.014932728
337	35.8	64.269	67.12344	0.015559601
338	35.85	71.374	67.12722	0.014010704
339	35.9	69.504	67.14025	0.014387661
340	35.95	63.704	67.16067	0.015697601
341	36	66.017	67.18779	0.015147613
342	36.05	68.482	67.22157	0.014602377
343	36.1	71.74	67.26236	0.013939225
344	36.15	65.931	67.31085	0.015167372
345	36.2	67.816	67.36799	0.014745783
346	36.25	68.868	67.43502	0.014520532
347	36.3	71.186	67.51356	0.014047706
348	36.35	69.995	67.60569	0.014286735
349	36.4	67.371	67.71419	0.014843182
350	36.45	67.408	67.8431	0.014835034
351	36.5	73.52	67.99907	0.013601741
352	36.55	71.381	68.19495	0.01400933
353	36.6	69.669	68.45815	0.014353586
354	36.65	68.641	68.84841	0.014568552
355	36.7	74.373	69.48998	0.01344574
356	36.75	73.343	70.62028	0.013634566
357	36.8	74.102	72.64469	0.013494912
358	36.85	81.843	76.16755	0.012218516
359	36.9	87.234	81.94984	0.01146342
360	36.95	89.079	90.74873	0.01122599
361	37	104.997	103.04006	0.009524082
362	37.05	106.717	118.70063	0.009370578
363	37.1	128.046	136.77418	0.007809693
364	37.15	145.919	155.41587	0.006853117
365	37.2	160.035	172.14573	0.006248633
366	37.25	173.63	184.60884	0.005759373
367	37.3	186.469	191.58643	0.005362822
368	37.35	178.219	192.98957	0.005611074
369	37.4	184.681	188.92207	0.005414742
370	37.45	174.272	179.31251	0.005738156
371	37.5	165.441	164.69515	0.006044451
372	37.55	150.01	146.87533	0.006666222
373	37.6	133.475	128.36761	0.00749204
374	37.65	112.034	111.39576	0.008925862
375	37.7	97.656	97.38566	0.010240026
376	37.75	88.361	86.88242	0.01131721
377	37.8	85.565	79.69575	0.011687022
378	37.85	80.159	75.18461	0.012475206
379	37.9	74.617	72.56719	0.013401772
380	37.95	67.342	71.14763	0.014849574
381	38	70.357	70.41777	0.014213227
382	38.05	72.475	70.05922	0.013797861
383	38.1	70.245	69.89653	0.014235889
384	38.15	72.411	69.84313	0.013810056
385	38.2	68.213	69.86032	0.014659962
386	38.25	71.135	69.93681	0.014057777
387	38.3	73.235	70.06198	0.013654673
388	38.35	73.146	70.23462	0.013671288
389	38.4	72.64	70.4631	0.01376652
390	38.45	72.4	70.75361	0.013812155
391	38.5	76.005	71.12271	0.013157029
392	38.55	79.391	71.60511	0.012595886
393	38.6	78.734	72.27531	0.012700993
394	38.65	80.368	73.2856	0.012442763
395	38.7	83.787	74.91279	0.011935026
396	38.75	80.876	77.6723	0.012364608
397	38.8	90.633	82.34796	0.011033509
398	38.85	97.991	90.02211	0.010205019
399	38.9	108.258	101.95105	0.009237193
400	38.95	124.77	119.33096	0.008014747
401	39	147.388	142.97624	0.006784813
402	39.05	163.983	172.98355	0.006098193
403	39.1	199.406	208.4208	0.005014894
404	39.15	239.877	247.14452	0.004168803
405	39.2	280.932	286.33554	0.00355958
406	39.25	321.99	323.34804	0.003105687
407	39.3	342.639	355.61042	0.002918524
408	39.35	359.737	379.78556	0.002779809
409	39.4	387.155	392.615	0.002582945
410	39.45	388.257	393.62456	0.002575614
411	39.5	371.255	385.58609	0.002693566
412	39.55	340.728	371.23492	0.002934892
413	39.6	331.45	350.67392	0.003017046
414	39.65	313.551	322.1626	0.003189274
415	39.7	284.447	285.40969	0.003515593
416	39.75	244.098	243.59802	0.004096715
417	39.8	200.024	201.75124	0.0049994
418	39.85	153.312	164.33373	0.006522647
419	39.9	129.839	134.13688	0.007701846
420	39.95	108.301	112.05002	0.009233525
421	40	103.521	97.37839	0.009659876
422	40.05	94.149	88.5237	0.010621462
423	40.1	93.328	83.7091	0.010714898
424	40.15	89.261	81.48201	0.011203101
425	40.2	88.47	80.92964	0.011303267
426	40.25	87.903	81.69605	0.011376176
427	40.3	88.66	83.91483	0.011279044
428	40.35	89.623	88.10626	0.01115785
429	40.4	102.59	95.01168	0.009747539
430	40.45	109.77	105.32384	0.009109957
431	40.5	120.921	119.34202	0.008269862
432	40.55	143.083	136.71262	0.00698895
433	40.6	159.264	156.47803	0.006278883
434	40.65	179.69	177.57823	0.00556514
435	40.7	197.066	199.89777	0.005074442
436	40.75	227.128	225.81038	0.004402804
437	40.8	246.24	260.80715	0.004061079
438	40.85	285.461	311.25934	0.003503106
439	40.9	365.886	380.62611	0.002733092
440	40.95	434.356	466.76393	0.002302259
441	41	526.787	561.22796	0.0018983
442	41.05	638.724	650.76085	0.001565621
443	41.1	705.701	722.22059	0.001417031
444	41.15	733.462	770.21297	0.001363397
445	41.2	723.264	798.18569	0.001382621
446	41.25	703.332	809.48989	0.001421804
447	41.3	683.147	800.03533	0.001463814
448	41.35	674.047	760.07968	0.001483576
449	41.4	625.549	684.36689	0.001598596
450	41.45	515.189	580.6006	0.001941035
451	41.5	391.435	465.57648	0.002554703
452	41.55	281.952	356.10943	0.003546703
453	41.6	205.118	263.92043	0.004875243
454	41.65	157.698	194.22578	0.006341235
455	41.7	123.827	146.48549	0.008075783
456	41.75	108.579	116.5388	0.009209884
457	41.8	100.579	99.04987	0.009942433
458	41.85	90.128	89.27351	0.011095331
459	41.9	80.792	83.8079	0.012377463
460	41.95	75.688	80.57632	0.013212134
461	42	78.715	78.46423	0.012704059
462	42.05	67.134	76.93014	0.014895582
463	42.1	73.671	75.72604	0.013573862
464	42.15	72.021	74.73769	0.013884839
465	42.2	70.753	73.9074	0.014133676
466	42.25	66.209	73.20119	0.015103687
467	42.3	64.567	72.59595	0.015487788
468	42.35	69.733	72.07457	0.014340413
469	42.4	68.896	71.62386	0.014514631
470	42.45	67.238	71.23361	0.014872542
471	42.5	71.668	70.89614	0.013953229
472	42.55	67.715	70.60648	0.014767777
473	42.6	69.353	70.36359	0.014418987
474	42.65	73.461	70.17308	0.013612665
475	42.7	67.831	70.05208	0.014742522
476	42.75	74.943	70.03556	0.013343474
477	42.8	68.286	70.18074	0.01464429
478	42.85	71.747	70.5631	0.013937865
479	42.9	76.967	71.25668	0.012992581
480	42.95	78.106	72.29625	0.012803114
481	43	76.978	73.6313	0.012990725
482	43.05	82.076	75.09219	0.01218383
483	43.1	83.264	76.38886	0.012009992
484	43.15	83.145	77.16381	0.012027181
485	43.2	79.479	77.13945	0.01258194
486	43.25	80.964	76.30877	0.012351168
487	43.3	74.635	74.94137	0.01339854
488	43.35	75.805	73.39523	0.013191742
489	43.4	78.3	71.96445	0.012771392
490	43.45	74.63	70.82352	0.013399437
491	43.5	74.119	70.02702	0.013491817
492	43.55	75.267	69.5425	0.013286035
493	43.6	79.473	69.2966	0.01258289
494	43.65	74.656	69.21345	0.013394771
495	43.7	75.629	69.23532	0.013222441
496	43.75	74.294	69.32724	0.013460037
497	43.8	73.118	69.47302	0.013676523
498	43.85	80.666	69.66989	0.012396797
499	43.9	77.833	69.92579	0.012848021
500	43.95	73.251	70.26298	0.013651691
501	44	73.957	70.73223	0.013521371
502	44.05	73.824	71.44571	0.01354573
503	44.1	77.453	72.63731	0.012911056
504	44.15	82.715	74.75037	0.012089706
505	44.2	82.671	78.52808	0.01209614
506	44.25	88.278	85.03319	0.011327851
507	44.3	102.378	95.52347	0.009767724
508	44.35	115.141	111.09639	0.008685004
509	44.4	141.519	132.16632	0.007066189
510	44.45	169.335	157.92622	0.005905454
511	44.5	195.584	185.9721	0.005112893
512	44.55	225.212	212.32647	0.004440261
513	44.6	245.58	232.48349	0.004071993
514	44.65	261.623	243.51626	0.003822294
515	44.7	253.231	244.77626	0.003948964
516	44.75	241.078	236.30826	0.004148035
517	44.8	222.677	218.45347	0.00449081
518	44.85	194	193.43613	0.005154639
519	44.9	163.495	165.50978	0.006116395
520	44.95	134.476	138.94563	0.007436271
521	45	110.549	116.59492	0.009045763
522	45.05	88.906	99.65614	0.011247835
523	45.1	82.748	87.98891	0.012084884
524	45.15	78.853	80.62565	0.012681826
525	45.2	81.612	76.31686	0.0122531
526	45.25	79.931	73.9278	0.012510791
527	45.3	76.275	72.629	0.013110456
528	45.35	73.771	71.9005	0.013555462
529	45.4	72.649	71.46538	0.013764814
530	45.45	68.523	71.18617	0.01459364
531	45.5	69.581	70.99958	0.014371739
532	45.55	72.758	70.87656	0.013744193
533	45.6	71.421	70.80268	0.014001484
534	45.65	68.62	70.76973	0.014573011
535	45.7	64.577	70.77244	0.01548539
536	45.75	65.409	70.80722	0.015288416
537	45.8	74.429	70.87158	0.013435623
538	45.85	67.03	70.96393	0.014918693
539	45.9	69.327	71.08338	0.014424395
540	45.95	78.001	71.22962	0.012820348
541	46	71.748	71.4029	0.013937671
542	46.05	76.614	71.60396	0.013052445
543	46.1	72.439	71.83403	0.013804718
544	46.15	69.811	72.09483	0.01432439
545	46.2	71.294	72.38861	0.014026426
546	46.25	71.715	72.71817	0.013944084
547	46.3	67.925	73.08696	0.01472212
548	46.35	68.326	73.49913	0.014635717
549	46.4	72.795	73.95972	0.013737207
550	46.45	76.606	74.47492	0.013053808
551	46.5	80.005	75.05182	0.012499219
552	46.55	79.393	75.69871	0.012595569
553	46.6	81.257	76.42631	0.012306632
554	46.65	81.817	77.24727	0.012222399
555	46.7	78.731	78.17699	0.012701477
556	46.75	78.225	79.23434	0.012783637
557	46.8	85.231	80.44266	0.01173282
558	46.85	82.359	81.831	0.012141964
559	46.9	87.754	83.43595	0.011395492
560	46.95	88.309	85.30421	0.011323874
561	47	88.631	87.4969	0.011282734
562	47.05	94.012	90.09827	0.01063694
563	47.1	97.247	93.23695	0.010283094
564	47.15	99.981	97.14202	0.0100019
565	47.2	111.248	102.28567	0.008988926
566	47.25	121.466	109.71026	0.008232756
567	47.3	148.783	121.67336	0.006721198
568	47.35	175.642	142.68793	0.005693399
569	47.4	220.001	180.75842	0.004545434
570	47.45	280.328	248.06179	0.00356725
571	47.5	383.91	359.73864	0.002604777
572	47.55	523.794	529.50066	0.001909147
573	47.6	754.846	762.05788	0.001324774
574	47.65	1048.192	1044.55257	0.000954024
575	47.7	1370.71	1340.56319	0.000729549
576	47.75	1657.479	1590.93018	0.000603326
577	47.8	1841.169	1729.90662	0.000543133
578	47.85	1822.324	1720.3093	0.00054875
579	47.9	1603.184	1576.60264	0.000623759
580	47.95	1316.547	1349.15009	0.000759563
581	48	1031.742	1099.14558	0.000969235
582	48.05	836.286	883.53872	0.001195763
583	48.1	700.738	741.73678	0.001427067
584	48.15	658.089	688.17167	0.001519551
585	48.2	691.531	712.79461	0.001446067
586	48.25	794.525	785.43984	0.001258614
587	48.3	880.607	862.17294	0.00113558
588	48.35	939.796	895.9118	0.001064061
589	48.4	905.747	856.87792	0.001104061
590	48.45	758.664	750.5998	0.001318107
591	48.5	551.25	608.01823	0.001814059
592	48.55	375.5	462.3394	0.002663116
593	48.6	253.857	336.80646	0.003939226
594	48.65	187.996	242.07551	0.005319262
595	48.7	138.97	178.18904	0.007195798
596	48.75	112.153	138.94837	0.008916391
597	48.8	100.006	116.40995	0.0099994
598	48.85	93.682	103.79737	0.010674409
599	48.9	92.02	96.51808	0.010867203
600	48.95	87.695	91.94343	0.011403159
601	49	87.238	88.7566	0.011462895
602	49.05	82.168	86.36691	0.012170188
603	49.1	79.933	84.53858	0.012510478
604	49.15	79.113	83.19938	0.012640148
605	49.2	78.366	82.35288	0.012760636
606	49.25	76.096	82.02995	0.013141295
607	49.3	75.2	82.24131	0.013297872
608	49.35	78.473	82.92441	0.012743237
609	49.4	78.767	83.89656	0.012695672
610	49.45	77.814	84.85895	0.012851158
611	49.5	83.378	85.4391	0.011993571
612	49.55	81.531	85.25782	0.012265273
613	49.6	75.623	84.10489	0.01322349
614	49.65	74.433	82.14777	0.013434901
615	49.7	73.084	79.82372	0.013682885
616	49.75	72.207	77.55588	0.013849073
617	49.8	74.075	75.61475	0.013499831
618	49.85	75.626	74.10757	0.013222966
619	49.9	63.777	73.01896	0.015679634
620	49.95	68.209	72.25971	0.014660822
621	50	69.894	71.7309	0.01430738
622	50.05	73.005	71.34808	0.013697692
623	50.1	69.99	71.05378	0.014287755
624	50.15	65.905	70.81389	0.015173356
625	50.2	68.582	70.60977	0.014581085
626	50.25	69.149	70.43129	0.014461525
627	50.3	69	70.27184	0.014492754
628	50.35	66.567	70.13067	0.015022459
629	50.4	72.886	70.00557	0.013720056
630	50.45	67.396	69.89434	0.014837676
631	50.5	60.702	69.79573	0.016473922
632	50.55	60.95	69.7084	0.016406891
633	50.6	67.015	69.6288	0.014922032
634	50.65	66.343	69.55826	0.01507318
635	50.7	66.387	69.49848	0.01506319
636	50.75	65.635	69.44784	0.015235774
637	50.8	67.485	69.40709	0.014818108
638	50.85	68.511	69.37758	0.014596196
639	50.9	66.999	69.36069	0.014925596
640	50.95	65.049	69.35743	0.015373026
641	51	68.511	69.36788	0.014596196
642	51.05	68.985	69.39085	0.014495905
643	51.1	70.465	69.42379	0.014191443
644	51.15	70.17	69.46322	0.014251104
645	51.2	71.054	69.50658	0.014073803
646	51.25	68.056	69.55465	0.014693782
647	51.3	68.668	69.61018	0.014562824
648	51.35	73.613	69.67414	0.013584557
649	51.4	68.319	69.74433	0.014637217
650	51.45	69.127	69.81775	0.014466128
651	51.5	68.573	69.89499	0.014582999
652	51.55	70.405	69.9815	0.014203537
653	51.6	71.837	70.08507	0.013920403
654	51.65	71.089	70.2129	0.014066874
655	51.7	67.843	70.37068	0.014739914
656	51.75	68.708	70.56284	0.014554346
657	51.8	70.14	70.79348	0.0142572
658	51.85	71.45	71.06759	0.013995801
659	51.9	75.242	71.39222	0.013290449
660	51.95	69.971	71.7779	0.014291635
661	52	73.295	72.24137	0.013643495
662	52.05	68.969	72.81251	0.014499268
663	52.1	73.209	73.55055	0.013659523
664	52.15	73.243	74.58192	0.013653182
665	52.2	77.772	76.16851	0.012858098
666	52.25	80.013	78.81207	0.012497969
667	52.3	85.102	83.36793	0.011750605
668	52.35	93.094	91.09402	0.010741831
669	52.4	103.014	103.52167	0.009707418
670	52.45	116.302	122.04821	0.008598304
671	52.5	149.929	147.23966	0.006669824
672	52.55	177.557	177.99279	0.005631994
673	52.6	208.185	210.88388	0.00480342
674	52.65	243.696	240.42131	0.004103473
675	52.7	262.361	260.61842	0.003811542
676	52.75	271.379	267.27617	0.003684884
677	52.8	263.301	259.32073	0.003797935
678	52.85	240.306	238.38659	0.004161361
679	52.9	200.339	208.75116	0.004991539
680	52.95	171.032	176.60543	0.005846859
681	53	133.689	147.50431	0.007480047
682	53.05	125.925	124.61539	0.007941235
683	53.1	110.407	108.80241	0.009057397
684	53.15	104.772	99.48573	0.009544535
685	53.2	98.581	95.63019	0.010143943
686	53.25	101.631	96.61964	0.009839517
687	53.3	105.066	102.8411	0.009517827
688	53.35	121.093	115.81759	0.008258116
689	53.4	144.999	137.74124	0.006896599
690	53.45	187.223	170.35339	0.005341224
691	53.5	226.045	213.42672	0.004423898
692	53.55	290.918	263.42437	0.003437395
693	53.6	362.179	313.01036	0.002761066
694	53.65	422.178	352.74892	0.002368669
695	53.7	469.56	377.10644	0.002129653
696	53.75	468.551	390.29549	0.002134239
697	53.8	470.632	403.06719	0.002124802
698	53.85	472.416	425.32579	0.002116778
699	53.9	495.057	460.78409	0.002019969
700	53.95	543.588	503.11624	0.001839629
701	54	579.974	537.01949	0.001724215
702	54.05	596.802	547.52838	0.001675598
703	54.1	562.781	531.84691	0.00177689
704	54.15	529.007	501.10949	0.001890334
705	54.2	488.585	472.27667	0.002046727
706	54.25	481.636	457.69317	0.002076257
707	54.3	498.699	457.80862	0.002005218
708	54.35	514.472	460.26482	0.00194374
709	54.4	500.862	446.20467	0.001996558
710	54.45	441.387	404.75758	0.002265586
711	54.5	356.264	342.28309	0.002806907
712	54.55	263.709	273.69465	0.003792059
713	54.6	191.724	211.59333	0.005215831
714	54.65	139.995	162.86281	0.007143112
715	54.7	115.79	128.95264	0.008636324
716	54.75	99.611	107.61854	0.010039052
717	54.8	90.231	95.15319	0.011082666
718	54.85	86.822	88.10227	0.011517818
719	54.9	83.254	84.02016	0.012011435
720	54.95	86.439	81.47353	0.011568852
721	55	79.44	79.72778	0.012588117
722	55.05	81.86	78.42936	0.012215978
723	55.1	83.261	77.39961	0.012010425
724	55.15	84.506	76.53795	0.011833479
725	55.2	79.324	75.80293	0.012606525
726	55.25	79.572	75.21956	0.012567235
727	55.3	83.624	74.85396	0.011958289
728	55.35	78.307	74.76515	0.01277025
729	55.4	77.278	74.96176	0.012940293
730	55.45	79.284	75.36763	0.012612885
731	55.5	77.593	75.80457	0.01288776
732	55.55	74.822	76.01117	0.013365053
733	55.6	77.482	75.75231	0.012906223
734	55.65	72.759	75.00088	0.013744004
735	55.7	74.08	73.95674	0.01349892
736	55.75	70.951	72.87778	0.014094234
737	55.8	70.973	71.91278	0.014089865
738	55.85	71.624	71.15626	0.013961801
739	55.9	66.351	70.62165	0.015071363
740	55.95	68.659	70.25172	0.014564733
741	56	68.178	69.99965	0.014667488
742	56.05	72.81	69.81703	0.013734377
743	56.1	67.885	69.67773	0.014730795
744	56.15	64.941	69.56562	0.015398593
745	56.2	67.636	69.47014	0.014785026
746	56.25	70.409	69.38701	0.01420273
747	56.3	68.777	69.31057	0.014539744
748	56.35	70.132	69.24744	0.014258826
749	56.4	66.715	69.19285	0.014989133
750	56.45	71.213	69.14615	0.01404238
751	56.5	71.387	69.1066	0.014008153
752	56.55	67.947	69.07469	0.014717353
753	56.6	69.659	69.06793	0.014355647
754	56.65	67.155	69.10338	0.014890924
755	56.7	68.665	69.0851	0.01456346
756	56.75	71.712	69.07327	0.013944668
757	56.8	69.323	69.07056	0.014425227
758	56.85	66.756	69.08118	0.014979927
759	56.9	70.169	69.10954	0.014251308
760	56.95	68.918	69.14679	0.014509997
761	57	66.429	69.1938	0.015053666
762	57.05	71.05	69.24198	0.014074595
763	57.1	74.772	69.27918	0.01337399
764	57.15	75.116	69.29595	0.013312743
765	57.2	74.102	69.29395	0.013494912
766	57.25	76.875	69.28368	0.01300813
767	57.3	68.672	69.27736	0.014561976
768	57.35	68.978	69.2836	0.014497376
769	57.4	76.024	69.30426	0.013153741
770	57.45	69.713	69.33906	0.014344527
771	57.5	69.771	69.38615	0.014332602
772	57.55	67.905	69.44353	0.014726456
773	57.6	68.9	69.50472	0.014513788
774	57.65	68.342	69.57321	0.014632291
775	57.7	66.894	69.65629	0.014949024
776	57.75	67.545	69.74818	0.014804945
777	57.8	71.827	69.84949	0.013922341
778	57.85	71.564	69.9529	0.013973506
779	57.9	69.745	70.07132	0.014337945
780	57.95	68.315	70.20743	0.014638074
781	58	67.555	70.35783	0.014802753
782	58.05	71.257	70.52428	0.014033709
783	58.1	73.461	70.70894	0.013612665
784	58.15	72.426	70.91445	0.013807196
785	58.2	73.099	71.14426	0.013680078
786	58.25	77.545	71.40108	0.012895738
787	58.3	72.438	71.69004	0.013804909
788	58.35	70.009	72.01679	0.014283878
789	58.4	70.629	72.38849	0.01415849
790	58.45	70.707	72.81478	0.014142871
791	58.5	74.348	73.31268	0.013450261
792	58.55	76.277	73.89383	0.013110112
793	58.6	74.427	74.59934	0.013435984
794	58.65	71.18	75.50199	0.01404889
795	58.7	82.082	76.74237	0.012182939
796	58.75	80.798	78.56847	0.012376544
797	58.8	83.71	81.35388	0.011946004
798	58.85	89.857	85.54837	0.011128794
799	58.9	94.337	91.53321	0.010600295
800	58.95	104.971	99.43266	0.009526441
801	59	117.061	109.01497	0.008542555
802	59.05	128.535	119.80263	0.007779982
803	59.1	141.518	131.59686	0.007066239
804	59.15	154.553	145.77645	0.006470272
805	59.2	174.515	165.91161	0.005730166
806	59.25	199.657	195.38509	0.00500859
807	59.3	234.433	234.04706	0.004265611
808	59.35	289.065	276.24826	0.00345943
809	59.4	336.896	310.79526	0.002968275
810	59.45	368.799	325.47393	0.002711504
811	59.5	367.346	318.30498	0.002722229
812	59.55	323.932	302.7777	0.003087068
813	59.6	298.996	298.21234	0.003344526
814	59.65	314.265	319.29188	0.003182028
815	59.7	375.431	371.01305	0.002663605
816	59.75	454.648	446.09813	0.002199504
817	59.8	540.79	524.51675	0.001849147
818	59.85	610.461	578.1127	0.001638106
819	59.9	623.194	585.63349	0.001604637
820	59.95	576.635	548.65081	0.001734199
821	60	507.834	486.43129	0.001969147
822	60.05	431.077	417.00991	0.002319771
823	60.1	369.227	348.62687	0.002708361
824	60.15	305.452	284.26066	0.003273837
825	60.2	242.257	227.17622	0.004127848
826	60.25	189.326	180.49053	0.005281895
827	60.3	148.525	145.22039	0.006732873
828	60.35	119.509	120.47132	0.008367571
829	60.4	109.718	104.27594	0.009114275
830	60.45	94.915	94.2535	0.010535743
831	60.5	89.566	88.21166	0.011164951
832	60.55	84.143	84.50057	0.01188453
833	60.6	80.248	82.0764	0.01246137
834	60.65	76.689	80.3782	0.01303968
835	60.7	75.63	79.12424	0.013222266
836	60.75	79.536	78.20738	0.012572923
837	60.8	77.625	77.63458	0.012882448
838	60.85	77.261	77.48096	0.012943141
839	60.9	76.739	77.86996	0.013031184
840	60.95	72.139	78.91346	0.013862127
841	61	79.151	80.56201	0.012634079
842	61.05	76.763	82.58755	0.013027109
843	61.1	78.113	84.43232	0.012801966
844	61.15	87.474	85.31316	0.011431968
845	61.2	84.922	84.6705	0.011775512
846	61.25	83.901	82.70976	0.011918809
847	61.3	78.754	80.18488	0.012697768
848	61.35	76.79	77.78192	0.013022529
849	61.4	76.634	75.87529	0.013049038
850	61.45	73.102	74.57357	0.013679516
851	61.5	76.644	73.80606	0.013047336
852	61.55	73.8	73.43622	0.013550136
853	61.6	78.064	73.34871	0.012810002
854	61.65	75.934	73.49799	0.013169331
855	61.7	70.631	73.93426	0.014158089
856	61.75	76.207	74.82168	0.013122154
857	61.8	73.704	76.43591	0.013567785
858	61.85	76.337	79.10945	0.013099807
859	61.9	81.902	83.10296	0.012209714
860	61.95	88.911	88.38372	0.011247202
861	62	94.261	94.45216	0.010608841
862	62.05	93.658	100.26656	0.010677145
863	62.1	103.712	104.5729	0.009642086
864	62.15	106.479	106.93263	0.009391523
865	62.2	111.34	108.17602	0.008981498
866	62.25	112.157	109.47929	0.008916073
867	62.3	111.523	111.22873	0.00896676
868	62.35	117.612	113.04068	0.008502534
869	62.4	109.548	114.92694	0.009128419
870	62.45	113.435	117.98471	0.008815621
871	62.5	123.754	123.38737	0.008080547
872	62.55	129.987	130.96038	0.007693077
873	62.6	137.496	138.59969	0.007272939
874	62.65	141.974	143.38845	0.007043543
875	62.7	152.203	143.8278	0.006570173
876	62.75	149.276	139.60688	0.006699001
877	62.8	143.645	130.6301	0.006961607
878	62.85	125.692	118.41845	0.007955956
879	62.9	116.802	105.89585	0.008561497
880	62.95	105.873	95.31644	0.009445279
881	63	89.619	87.62075	0.011158348
882	63.05	84.091	82.83048	0.011891879
883	63.1	81.145	80.5487	0.012323618
884	63.15	80.788	80.3725	0.012378076
885	63.2	84.354	82.11314	0.011854802
886	63.25	86.252	85.76923	0.011593934
887	63.3	87.129	91.31518	0.011477235
888	63.35	97.602	98.4409	0.010245692
889	63.4	104.389	106.37099	0.009579553
890	63.45	112.155	114.05498	0.008916232
891	63.5	121.232	121.06787	0.008248647
892	63.55	125.364	128.19992	0.007976772
893	63.6	143.278	136.30248	0.006979439
894	63.65	147.811	144.52693	0.006765396
895	63.7	146.724	149.98622	0.006815518
896	63.75	150.73	149.28717	0.006634379
897	63.8	149.829	141.11714	0.006674275
898	63.85	131.036	127.83164	0.007631491
899	63.9	112.664	113.7824	0.00887595
900	63.95	106.336	102.50398	0.009404153
901	64	101.081	95.89402	0.009893056
902	64.05	101.964	94.6146	0.009807383
903	64.1	101.742	98.41227	0.009828783
904	64.15	107.338	106.20306	0.009316365
905	64.2	118.128	115.8631	0.008465393
906	64.25	129.016	123.99352	0.007750977
907	64.3	133.53	126.56421	0.007488954
908	64.35	133.41	121.76087	0.00749569
909	64.4	126.533	111.82565	0.007903077
910	64.45	104.245	100.57314	0.009592786
911	64.5	91.717	90.6929	0.010903104
912	64.55	83.935	83.34535	0.011913981
913	64.6	75.933	78.54983	0.013169505
914	64.65	74.999	75.71826	0.013333511
915	64.7	76.007	74.13862	0.013156683
916	64.75	71.948	73.25216	0.013898927
917	64.8	66.997	72.7219	0.014926041
918	64.85	67.07	72.3689	0.014909796
919	64.9	74.458	72.10708	0.01343039
920	64.95	78.352	71.90586	0.012762916
921	65	80.454	71.74785	0.012429463
922	65.05	74.922	71.62308	0.013347214
923	65.1	74.176	71.52495	0.01348145
924	65.15	75.076	71.44878	0.013319836
925	65.2	68.567	71.39109	0.014584275
926	65.25	72.373	71.34926	0.013817308
927	65.3	71.478	71.3215	0.013990319
928	65.35	70.291	71.30633	0.014226572
929	65.4	72.865	71.30268	0.01372401
930	65.45	69.814	71.31039	0.014323775
931	65.5	72.764	71.32902	0.01374306
932	65.55	71.424	71.35872	0.014000896
933	65.6	68.408	71.40005	0.014618173
934	65.65	69.039	71.45414	0.014484567
935	65.7	69.918	71.52308	0.014302469
936	65.75	68.444	71.61105	0.014610484
937	65.8	71.193	71.72683	0.014046325
938	65.85	72.58	71.88838	0.0137779
939	65.9	73.137	72.12856	0.01367297
940	65.95	72.61	72.49763	0.013772208
941	66	73.32	73.05416	0.013638843
942	66.05	77.84	73.83906	0.012846865
943	66.1	74.995	74.83917	0.013334222
944	66.15	71.996	75.9576	0.013889661
945	66.2	76.755	77.01654	0.013028467
946	66.25	75.305	77.89671	0.013279331
947	66.3	85.393	78.85684	0.011710562
948	66.35	78.201	80.55719	0.01278756
949	66.4	85.58	83.64822	0.011684973
950	66.45	84.385	88.37714	0.011850447
951	66.5	87.367	94.28777	0.011445969
952	66.55	93.614	99.99362	0.010682163
953	66.6	97.301	103.3372	0.010277387
954	66.65	103.206	102.90115	0.009689359
955	66.7	101.685	99.65694	0.009834292
956	66.75	89.314	95.73349	0.011196453
957	66.8	87.379	92.4293	0.011444397
958	66.85	88.983	89.79313	0.011238102
959	66.9	88.367	87.2267	0.011316442
960	66.95	82.876	84.57195	0.012066219
961	67	81.631	82.26167	0.012250248
962	67.05	77.203	80.79296	0.012952865
963	67.1	82.203	80.58179	0.012165006
964	67.15	84.373	82.03219	0.011852133
965	67.2	86.225	85.51872	0.011597565
966	67.25	96.491	91.23897	0.010363661
967	67.3	107.4	98.91341	0.009310987
968	67.35	113.32	107.45854	0.008824568
969	67.4	116.457	114.85812	0.00858686
970	67.45	133.12	119.21745	0.007512019
971	67.5	119.72	120.67064	0.008352823
972	67.55	114.171	120.99822	0.008758792
973	67.6	108.679	121.12443	0.00920141
974	67.65	104.951	119.84099	0.009528256
975	67.7	103.604	115.34554	0.009652137
976	67.75	98.283	107.8024	0.0101747
977	67.8	89.458	99.22587	0.01117843
978	67.85	78.568	91.55744	0.012727828
979	67.9	79.454	85.75222	0.012585899
980	67.95	76.721	81.91481	0.013034241
981	68	84.003	79.66455	0.011904337
982	68.05	77.046	78.48081	0.012979259
983	68.1	75.325	77.92049	0.013275805
984	68.15	78.777	77.69632	0.01269406
985	68.2	77.583	77.66006	0.012889422
986	68.25	78.653	77.73754	0.012714073
987	68.3	73.806	77.90378	0.013549034
988	68.35	78.401	78.14139	0.012754939
989	68.4	79.651	78.44842	0.01255477
990	68.45	79.775	78.82424	0.012535255
991	68.5	79.032	79.26987	0.012653103
992	68.55	76.299	79.79011	0.013106332
993	68.6	81.239	80.39237	0.012309359
994	68.65	76.747	81.08705	0.013029825
995	68.7	78.35	81.88791	0.012763242
996	68.75	82.869	82.81311	0.012067239
997	68.8	79.786	83.88637	0.012533527
998	68.85	76.363	85.13884	0.013095347
999	68.9	79.032	86.6119	0.012653103
1000	68.95	82.771	88.36176	0.012081526
1001	69	83.547	90.46856	0.011969311
1002	69.05	92.145	93.05813	0.010852461
1003	69.1	89.442	96.35769	0.01118043
1004	69.15	98.996	100.86224	0.010101418
1005	69.2	107.657	107.64381	0.00928876
1006	69.25	117.41	118.88894	0.008517162
1007	69.3	132.27	138.38909	0.007560293
1008	69.35	170.389	171.36897	0.005868923
1009	69.4	223.318	222.82997	0.004477919
1010	69.45	292.192	294.24646	0.003422407
1011	69.5	378.699	379.23859	0.00264062
1012	69.55	467.812	458.90253	0.002137611
1013	69.6	541.636	504.83241	0.001846258
1014	69.65	558.58	504.08124	0.001790254
1015	69.7	553.013	470.37764	0.001808276
1016	69.75	485.624	417.56803	0.002059206
1017	69.8	419.505	353.92363	0.002383762
1018	69.85	356.436	292.95903	0.002805553
1019	69.9	300.437	246.72772	0.003328485
1020	69.95	251.679	220.41025	0.003973315
1021	70	234.595	216.30003	0.004262665
1022	70.05	256.736	239.00801	0.003895052
1023	70.1	311.624	299.46308	0.003208995
1024	70.15	393.656	415.56679	0.002540289
1025	70.2	561.071	606.05047	0.001782306
1026	70.25	804.737	876.09366	0.001242642
1027	70.3	1142.847	1197.38868	0.000875008
1028	70.35	1462.436	1489.59746	0.000683791
1029	70.4	1724.94	1631.65319	0.00057973
1030	70.45	1751.581	1548.98565	0.000570913
1031	70.5	1561.702	1298.13989	0.000640327
1032	70.55	1194.848	1000.66287	0.000836927
1033	70.6	867.192	737.51831	0.001153147
1034	70.65	603.695	533.27753	0.001656466
1035	70.7	446.394	385.99654	0.002240173
1036	70.75	329.955	286.49649	0.003030716
1037	70.8	247.178	222.1748	0.004045667
1038	70.85	192.834	181.21598	0.005185807
1039	70.9	160.882	154.95816	0.006215736
1040	70.95	147.755	137.71246	0.00676796
1041	71	140.323	125.96287	0.007126415
1042	71.05	122.418	117.58131	0.008168733
1043	71.1	111.619	111.3337	0.008959048
1044	71.15	102.357	106.52238	0.009769728
1045	71.2	93.992	102.73745	0.010639203
1046	71.25	92.185	99.72153	0.010847752
1047	71.3	90.049	97.30799	0.011105065
1048	71.35	80.897	95.39306	0.012361398
1049	71.4	84.594	93.92485	0.011821169
1050	71.45	86.449	92.90559	0.011567514
1051	71.5	87.895	92.40365	0.011377211
1052	71.55	84.651	92.55911	0.01181321
1053	71.6	84.338	93.56299	0.011857051
1054	71.65	91.17	95.56513	0.01096852
1055	71.7	94.666	98.62661	0.010563455
1056	71.75	96.789	102.6794	0.010331753
1057	71.8	105.374	107.55231	0.009490007
1058	71.85	115.4	113.66998	0.008665511
1059	71.9	121.389	122.88809	0.008237979
1060	71.95	129.911	137.07938	0.007697578
1061	72	145.457	155.67357	0.006874884
1062	72.05	171.946	173.97065	0.005815779
1063	72.1	187.904	183.24248	0.005321866
1064	72.15	186.518	176.94739	0.005361413
1065	72.2	167.643	158.64104	0.005965057
1066	72.25	145.998	137.25387	0.006849409
1067	72.3	123.556	119.03914	0.008093496
1068	72.35	107.769	106.34695	0.009279106
1069	72.4	93.677	99.08368	0.010674979
1070	72.45	93.73	96.24853	0.010668943
1071	72.5	97.182	97.15016	0.010289971
1072	72.55	102.812	101.99994	0.009726491
1073	72.6	111.407	111.73336	0.008976097
1074	72.65	127.625	127.09163	0.007835455
1075	72.7	146.632	147.19876	0.006819794
1076	72.75	165.008	167.93646	0.006060312
1077	72.8	187.292	181.02918	0.005339256
1078	72.85	188.58	178.70157	0.005302789
1079	72.9	182.425	162.86107	0.005481705
1080	72.95	160.196	142.74804	0.006242353
1081	73	131.644	125.80942	0.007596244
1082	73.05	114.964	115.48063	0.008698375
1083	73.1	108.069	112.47971	0.009253347
1084	73.15	113.106	115.9436	0.008841264
1085	73.2	122.139	123.94871	0.008187393
1086	73.25	130.844	133.26555	0.007642689
1087	73.3	136.993	139.03876	0.007299643
1088	73.35	137.506	137.64328	0.00727241
1089	73.4	133.801	131.29598	0.007473786
1090	73.45	128.124	125.24357	0.007804939
1091	73.5	132.071	123.54617	0.007571685
1092	73.55	133.954	128.67549	0.007465249
1093	73.6	137.617	141.82131	0.007266544
1094	73.65	152.67	162.66214	0.006550075
1095	73.7	176.561	188.69277	0.005663765
1096	73.75	201.098	215.12005	0.0049727
1097	73.8	230.744	238.19133	0.004333807
1098	73.85	244.323	260.48772	0.004092943
1099	73.9	287.194	290.58988	0.003481967
1100	73.95	321.448	333.94391	0.003110923
1101	74	367.87	383.82221	0.002718352
1102	74.05	423.719	421.67416	0.002360055
1103	74.1	460.214	436.02082	0.002172902
1104	74.15	469.052	440.26753	0.00213196
1105	74.2	476.296	456.61119	0.002099535
1106	74.25	495.137	488.81246	0.002019643
1107	74.3	519.827	514.58122	0.001923717
1108	74.35	543.286	506.7828	0.001840651
1109	74.4	486.025	461.36121	0.002057507
1110	74.45	432.398	392.50204	0.002312684
1111	74.5	357.15	321.12846	0.002799944
1112	74.55	286.867	264.26855	0.003485936
1113	74.6	242.362	226.76725	0.004126059
1114	74.65	206.773	202.71458	0.004836221
1115	74.7	178.389	183.97357	0.005605727
1116	74.75	165.634	168.72218	0.006037408
1117	74.8	151.062	159.41755	0.006619798
1118	74.85	150.28	158.3903	0.006654245
1119	74.9	161.823	167.77116	0.006179591
1120	74.95	184.242	190.35061	0.005427644
1121	75	225.439	228.96103	0.00443579
1122	75.05	277.142	283.39234	0.003608259
1123	75.1	342.415	345.02669	0.002920433
1124	75.15	407.896	392.32463	0.002451605
1125	75.2	433.389	403.90803	0.002307396
1126	75.25	421.366	388.86159	0.002373234
1127	75.3	390.406	376.24491	0.002561436
1128	75.35	384.306	381.13209	0.002602093
1129	75.4	397.311	396.17963	0.00251692
1130	75.45	416.485	406.05281	0.002401047
1131	75.5	438.612	403.75849	0.002279919
1132	75.55	437.023	380.26864	0.002288209
1133	75.6	405.586	329.84956	0.002465568
1134	75.65	365.032	266.55265	0.002739486
1135	75.7	275.513	209.2037	0.003629593
1136	75.75	203.06	166.64145	0.004924653
1137	75.8	161.234	139.18235	0.006202166
1138	75.85	138.132	122.96802	0.007239452
1139	75.9	120.756	113.07951	0.008281162
1140	75.95	111.466	106.05426	0.008971346
1141	76	97.081	100.68547	0.010300677
1142	76.05	100.183	96.71824	0.009981733
1143	76.1	95.391	93.95171	0.010483169
1144	76.15	91.936	92.03926	0.010877132
1145	76.2	84.64	90.51125	0.011814745
1146	76.25	79.428	89.02366	0.012590019
1147	76.3	79.129	87.60361	0.012637592
1148	76.35	82.012	86.43315	0.012193338
1149	76.4	78.289	85.60924	0.012773187
1150	76.45	76.604	85.14543	0.013054149
1151	76.5	78.796	85.01964	0.012691
1152	76.55	77.993	85.21355	0.012821663
1153	76.6	79.496	85.74614	0.012579249
1154	76.65	80.353	86.69782	0.012445086
1155	76.7	77.837	88.29415	0.012847361
1156	76.75	77.972	91.06934	0.012825117
1157	76.8	85.661	96.15443	0.011673924
1158	76.85	96.269	105.53749	0.01038756
1159	76.9	110.524	121.85991	0.009047809
1160	76.95	127.969	147.22219	0.007814393
1161	77	152.056	180.84001	0.006576524
1162	77.05	176.87	215.57369	0.00565387
1163	77.1	192.705	235.56329	0.005189279
1164	77.15	206.913	227.07576	0.004832949
1165	77.2	186.317	196.77885	0.005367197
1166	77.25	155.769	162.12146	0.006419763
1167	77.3	129.819	133.95281	0.007703033
1168	77.35	116.469	115.3103	0.008585976
1169	77.4	99.889	105.19617	0.010011112
1170	77.45	97.231	101.55624	0.010284786
1171	77.5	101.004	103.25851	0.009900598
1172	77.55	108.79	110.89553	0.009192021
1173	77.6	125.498	126.37657	0.007968254
1174	77.65	157.863	151.3091	0.006334607
1175	77.7	190.612	184.27714	0.005246259
1176	77.75	229.133	217.04706	0.004364278
1177	77.8	238.987	232.67234	0.004184328
1178	77.85	236.082	219.32792	0.004235816
1179	77.9	216.285	186.67486	0.004623529
1180	77.95	176.069	152.00738	0.005679592
1181	78	139.035	124.61613	0.007192434
1182	78.05	112.555	106.38959	0.008884545
1183	78.1	93.263	95.61847	0.010722366
1184	78.15	89.687	89.64091	0.011149888
1185	78.2	84.644	86.28636	0.011814186
1186	78.25	85.106	84.24075	0.011750053
1187	78.3	84.124	82.83713	0.011887214
1188	78.35	77.666	81.77413	0.012875647
1189	78.4	76.005	80.94665	0.013157029
1190	78.45	74.934	80.31641	0.013345077
1191	78.5	73.147	79.86153	0.013671101
1192	78.55	76.633	79.5724	0.013049209
1193	78.6	78.596	79.37969	0.012723294
1194	78.65	74.916	79.295	0.013348283
1195	78.7	75.965	79.3104	0.013163957
1196	78.75	74.881	79.42367	0.013354523
1197	78.8	74.196	79.64541	0.013477816
1198	78.85	72.188	79.98734	0.013852718
1199	78.9	73.696	80.4727	0.013569257
1200	78.95	75.861	81.14024	0.013182004
1201	79	77.076	82.05096	0.012974207
1202	79.05	78.551	83.32644	0.012730583
1203	79.1	80.493	85.22718	0.012423441
1204	79.15	82.303	88.30471	0.012150225
1205	79.2	86.913	93.59254	0.011505759
1206	79.25	92.291	102.63832	0.010835293
1207	79.3	108.208	117.05586	0.009241461
1208	79.35	127.774	137.35776	0.007826318
1209	79.4	142.491	160.87255	0.007017987
1210	79.45	161.737	179.65607	0.006182877
1211	79.5	182.368	185.44332	0.005483418
1212	79.55	177.378	179.90068	0.005637678
1213	79.6	172.771	172.87074	0.005788008
1214	79.65	172.627	172.81081	0.005792837
1215	79.7	179.956	180.79852	0.005556914
1216	79.75	183.597	193.57243	0.005446712
1217	79.8	202.143	207.0023	0.004946993
1218	79.85	210.851	212.95436	0.004742686
1219	79.9	215.52	206.17493	0.004639941
1220	79.95	190.849	189.84114	0.005239745
1221	80	175.006	169.94715	0.00571409
1222	80.05	163.711	149.80765	0.006108325
1223	80.1	144.131	131.47401	0.006938133
1224	80.15	127.734	117.19344	0.007828769
1225	80.2	113.994	108.12492	0.008772392
1226	80.25	106.819	103.60964	0.00936163
1227	80.3	109.557	101.73819	0.009127669
1228	80.35	107.374	100.28533	0.009313242
1229	80.4	104.19	98.89526	0.00959785
1230	80.45	104.927	99.3782	0.009530435
1231	80.5	106.961	103.78619	0.009349202
1232	80.55	112.542	113.5833	0.008885572
1233	80.6	123.692	128.80179	0.008084597
1234	80.65	141.979	146.1931	0.007043295
1235	80.7	154.676	157.26657	0.006465127
1236	80.75	158.697	154.58373	0.006301316
1237	80.8	148.518	141.94199	0.006733191
1238	80.85	129.959	126.03887	0.007694734
1239	80.9	117.069	110.80683	0.008541971
1240	80.95	97.101	98.96768	0.010298555
1241	81	90.641	91.09212	0.011032535
1242	81.05	82.13	86.34027	0.012175819
1243	81.1	80.026	83.645	0.012495939
1244	81.15	80.165	82.17262	0.012474272
1245	81.2	79.323	81.3908	0.012606684
1246	81.25	72.338	80.98284	0.013823993
1247	81.3	73.269	80.92367	0.013648337
1248	81.35	79.119	81.43321	0.012639189
1249	81.4	77.356	82.87695	0.012927245
1250	81.45	80.24	85.60824	0.012462612
1251	81.5	82.385	89.66919	0.012138132
1252	81.55	88.849	94.23781	0.011255051
1253	81.6	92.741	97.19517	0.010782717
1254	81.65	89.612	96.27527	0.01115922
1255	81.7	86.805	92.09011	0.011520074
1256	81.75	84.835	87.31134	0.011787588
1257	81.8	75.932	83.54917	0.013169678
1258	81.85	76.783	81.13607	0.013023716
1259	81.9	72.725	79.81527	0.01375043
1260	81.95	75.735	79.2229	0.013203935
1261	82	73.029	79.07391	0.01369319
1262	82.05	68.27	79.23459	0.014647722
1263	82.1	71.203	79.7187	0.014044352
1264	82.15	72.528	80.65928	0.013787779
1265	82.2	75.876	82.38603	0.013179398
1266	82.25	75.978	85.35957	0.013161705
1267	82.3	82.34	89.98692	0.012144766
1268	82.35	88.622	96.18328	0.01128388
1269	82.4	94.106	102.55942	0.010626315
1270	82.45	93.789	106.28921	0.010662231
1271	82.5	100.316	106.5773	0.0099685
1272	82.55	102.948	106.17007	0.009713642
1273	82.6	102.953	107.12288	0.00971317
1274	82.65	97.988	108.09191	0.010205331
1275	82.7	100.807	106.09693	0.009919946
1276	82.75	95.736	101.12653	0.010445391
1277	82.8	94.614	95.83058	0.01056926
1278	82.85	89.052	92.15599	0.011229394
1279	82.9	87.228	90.76013	0.011464209
1280	82.95	87.385	91.91099	0.011443612
1281	83	93.66	96.17964	0.010676917
1282	83.05	97.601	104.58494	0.010245797
1283	83.1	104.448	117.95241	0.009574142
1284	83.15	124.755	135.26932	0.008015711
1285	83.2	139.481	150.68807	0.007169435
1286	83.25	135.959	153.99039	0.007355159
1287	83.3	131.915	143.05013	0.007580639
1288	83.35	122.343	127.45954	0.008173741
1289	83.4	111.729	115.00401	0.008950228
1290	83.45	106.065	107.93483	0.009428181
1291	83.5	110.037	106.00947	0.009087852
1292	83.55	116.342	108.85207	0.008595348
1293	83.6	123.624	117.19246	0.008089044
1294	83.65	144.155	133.44626	0.006936978
1295	83.7	170.356	160.96571	0.00587006
1296	83.75	212.036	201.42132	0.00471618
1297	83.8	239.111	249.26484	0.004182158
1298	83.85	279.47	285.78676	0.003578202
1299	83.9	292.736	292.17534	0.003416047
1300	83.95	303.233	273.73006	0.003297794
1301	84	289.28	254.89697	0.003456858
1302	84.05	285.582	253.94829	0.003501621
1303	84.1	301.501	272.86861	0.003316739
1304	84.15	320.275	304.0009	0.003122317
1305	84.2	339.751	328.58414	0.002943332
1306	84.25	347.879	332.14059	0.002874563
1307	84.3	335.037	321.74804	0.002984745
1308	84.35	309.743	294.79197	0.003228483
1309	84.4	272.009	249.975	0.003676349
1310	84.45	225.43	201.49192	0.004435967
1311	84.5	182.98	162.32276	0.005465078
1312	84.55	149.24	136.27765	0.006700616
1313	84.6	120.462	121.55115	0.008301373
1314	84.65	114.288	115.4001	0.008749825
1315	84.7	112.586	116.1038	0.008882099
1316	84.75	119.643	122.91604	0.008358199
1317	84.8	129.934	134.48929	0.007696215
1318	84.85	125.759	145.79209	0.007951717
1319	84.9	129.329	147.7143	0.007732218
1320	84.95	132.21	137.67658	0.007563724
1321	85	121.676	123.45783	0.008218548
1322	85.05	110.698	112.19707	0.009033587
1323	85.1	116.782	106.43809	0.008562963
1324	85.15	111.403	106.69526	0.008976419
1325	85.2	115.021	113.22865	0.008694065
1326	85.25	123.977	126.06389	0.008066012
1327	85.3	138.578	143.21317	0.007216153
1328	85.35	155.707	157.52372	0.006422319
1329	85.4	160.988	159.42215	0.006211643
1330	85.45	162.367	151.55078	0.006158887
1331	85.5	157.215	143.68592	0.006360716
1332	85.55	146.387	136.07174	0.006831208
1333	85.6	131.935	124.41721	0.00757949
1334	85.65	118.827	111.49401	0.008415596
1335	85.7	105.905	101.60234	0.009442425
1336	85.75	91.612	95.83857	0.010915601
1337	85.8	97.963	93.86888	0.010207936
1338	85.85	99.993	94.97202	0.0100007
1339	85.9	102.74	97.96847	0.009733307
1340	85.95	110.631	100.6932	0.009039058
1341	86	106.211	100.37883	0.009415221
1342	86.05	103.255	97.12731	0.009684761
1343	86.1	103.578	93.93567	0.00965456
1344	86.15	105.491	92.1461	0.009479482
1345	86.2	101.234	91.07553	0.009878104
1346	86.25	91.083	90.27896	0.010978997
1347	86.3	98.148	90.92694	0.010188695
1348	86.35	101.631	94.48497	0.009839517
1349	86.4	109.836	101.96082	0.009104483
1350	86.45	124.586	113.17807	0.008026584
1351	86.5	130.846	124.32898	0.007642572
1352	86.55	135.609	126.71973	0.007374142
1353	86.6	131.832	117.49541	0.007585412
1354	86.65	120.844	104.65607	0.008275132
1355	86.7	102.599	94.24874	0.009746684
1356	86.75	87.413	87.43183	0.011439946
1357	86.8	83.696	83.44147	0.011948002
1358	86.85	80.871	81.20291	0.012365372
1359	86.9	76.983	79.89792	0.012989881
1360	86.95	75.871	79.0752	0.013180267
1361	87	79.167	78.52426	0.012631526
1362	87.05	78.052	78.15126	0.012811972
1363	87.1	71.69	77.90826	0.013948947
1364	87.15	74.195	77.7691	0.013477997
1365	87.2	78.043	77.73813	0.012813449
1366	87.25	73.953	77.77772	0.013522102
1367	87.3	74.947	77.91073	0.013342762
1368	87.35	77.918	78.15001	0.012834005
1369	87.4	77.261	78.52018	0.012943141
1370	87.45	80.183	79.10587	0.012471472
1371	87.5	81.827	80.05575	0.012220905
1372	87.55	81.454	81.65198	0.012276868
1373	87.6	83.93	84.32593	0.011914691
1374	87.65	93.22	88.48058	0.010727312
1375	87.7	97.088	93.96238	0.010299934
1376	87.75	100.836	98.95098	0.009917093
1377	87.8	101.047	101.1224	0.009896385
1378	87.85	97.648	101.29031	0.010240865
1379	87.9	99.487	99.60848	0.010051565
1380	87.95	94.525	95.66508	0.010579212
1381	88	92.269	91.8484	0.010837876
1382	88.05	94.861	90.03688	0.01054174
1383	88.1	93.369	90.88573	0.010710193
1384	88.15	102.673	94.89162	0.009739659
1385	88.2	111.56	102.50105	0.008963786
1386	88.25	122.11	112.96388	0.008189337
1387	88.3	127.125	121.22546	0.007866273
1388	88.35	129.175	119.35417	0.007741436
1389	88.4	122.005	109.81071	0.008196385
1390	88.45	106.511	100.55542	0.009388702
1391	88.5	97.173	94.45826	0.010290924
1392	88.55	91.58	91.30017	0.010919415
1393	88.6	85.64	90.17418	0.011676787
1394	88.65	85.441	90.33371	0.011703983
1395	88.7	88.08	91.37461	0.011353315
1396	88.75	82.799	93.20143	0.012077441
1397	88.8	86.448	95.86601	0.011567648
1398	88.85	91.761	99.59296	0.010897876
1399	88.9	95.212	104.81055	0.010502878
1400	88.95	108.86	112.30188	0.009186111
1401	89	120.752	123.71183	0.008281436
1402	89.05	149.729	142.54222	0.006678733
1403	89.1	188.499	175.43228	0.005305068
1404	89.15	253.648	232.1762	0.003942471
1405	89.2	343.994	321.39489	0.002907027
1406	89.25	416.704	434.24552	0.002399785
1407	89.3	464.787	507.46163	0.002151523
1408	89.35	435.923	464.09018	0.002293983
1409	89.4	366.895	355.07332	0.002725575
1410	89.45	280.672	259.77125	0.003562878
1411	89.5	218.463	197.93701	0.004577434
1412	89.55	174.957	163.43256	0.00571569
1413	89.6	149.146	146.46401	0.00670484
1414	89.65	137.736	140.10141	0.007260266
1415	89.7	141.511	141.44346	0.007066588
1416	89.75	171.951	151.18483	0.00581561
1417	89.8	209.737	173.49196	0.004767876
1418	89.85	270.266	215.68604	0.003700058
1419	89.9	355.198	284.79893	0.002815331
1420	89.95	412.695	374.83466	0.002423097
1421	90	456.595	445.93422	0.002190125
1422	90.05	437.1	434.45628	0.002287806
1423	90.1	379.746	347.00592	0.002633339
1424	90.15	279.15	256.90771	0.003582303
1425	90.2	215.932	195.58462	0.004631088
1426	90.25	167.769	161.32936	0.005960577
1427	90.3	141.003	145.32529	0.007092048
1428	90.35	126.348	138.05034	0.007914648
1429	90.4	107.98	130.67502	0.009260974
1430	90.45	104.668	120.55336	0.009554018
1431	90.5	103.989	110.19141	0.009616402
1432	90.55	89.259	102.11298	0.011203352
1433	90.6	87.281	96.66322	0.011457247
1434	90.65	85.271	93.20492	0.011727316
1435	90.7	83.409	91.11758	0.011989114
1436	90.75	82.867	90.04201	0.01206753
1437	90.8	83.194	89.82424	0.012020098
1438	90.85	79.859	90.29789	0.01252207
1439	90.9	81.698	90.79379	0.012240202
1440	90.95	84.156	90.48052	0.011882694
1441	91	80.633	89.78001	0.01240187
1442	91.05	79.011	89.52864	0.012656466
1443	91.1	81.952	90.1772	0.012202265
1444	91.15	88.411	92.02228	0.01131081
1445	91.2	88.907	95.59096	0.011247708
1446	91.25	93.429	101.8527	0.010703315
1447	91.3	95.781	112.09463	0.010440484
1448	91.35	112.311	126.61991	0.008903847
1449	91.4	121.417	140.88858	0.008236079
1450	91.45	138.386	148.34947	0.007226164
1451	91.5	137.009	153.00786	0.007298791
1452	91.55	174.041	161.75991	0.005745773
1453	91.6	187.533	181.72754	0.005332395
1454	91.65	195.522	210.55855	0.005114514
1455	91.7	206.813	225.06246	0.004835286
1456	91.75	199.984	208.62297	0.0050004
1457	91.8	173.432	178.58912	0.005765949
1458	91.85	149.514	150.50309	0.006688337
1459	91.9	126.577	128.6745	0.007900329
1460	91.95	114.327	114.94326	0.00874684
1461	92	100.199	107.7146	0.00998014
1462	92.05	100.194	104.97231	0.009980638
1463	92.1	104.341	105.80955	0.00958396
1464	92.15	113.294	110.62096	0.008826593
1465	92.2	124.213	121.06194	0.008050687
1466	92.25	151.656	139.46128	0.00659387
1467	92.3	165.557	165.62373	0.006040216
1468	92.35	181.705	187.09138	0.005503426
1469	92.4	179.545	184.21728	0.005569634
1470	92.45	168.905	166.59646	0.005920488
1471	92.5	170.482	156.29481	0.005865722
1472	92.55	162.412	159.64628	0.006157181
1473	92.6	157.06	168.44387	0.006366994
1474	92.65	154.775	167.1013	0.006460992
1475	92.7	162.757	157.8935	0.006144129
1476	92.75	154.065	150.08792	0.006490767
1477	92.8	157.245	150.37611	0.006359503
1478	92.85	164.099	163.22583	0.006093882
1479	92.9	179.923	183.94323	0.005557933
1480	92.95	191.374	194.56356	0.00522537
1481	93	198.561	192.63316	0.005036236
1482	93.05	198.802	195.25516	0.00503013
1483	93.1	195.215	205.90174	0.005122557
1484	93.15	187.651	205.66178	0.005329042
1485	93.2	176.935	183.36776	0.005651793
1486	93.25	177.58	162.58097	0.005631265
1487	93.3	175.346	156.36839	0.00570301
1488	93.35	166.486	162.06641	0.006006511
1489	93.4	164.556	167.55765	0.006076959
1490	93.45	152.899	161.11814	0.006540265
1491	93.5	148.559	146.59206	0.006731332
1492	93.55	141.642	136.0643	0.007060053
1493	93.6	133.519	134.53802	0.007489571
1494	93.65	131.873	139.3918	0.007583053
1495	93.7	128.992	140.70843	0.007752419
1496	93.75	125.093	133.98113	0.007994052
1497	93.8	123.14	125.68185	0.008120838
1498	93.85	125.91	121.76206	0.007942181
1499	93.9	135.054	125.73781	0.007404446
1500	93.95	163.779	140.16733	0.006105789
1501	94	188.225	167.9538	0.005312791
1502	94.05	202.394	204.29428	0.004940858
1503	94.1	217.003	217.76664	0.004608231
1504	94.15	201.737	190.49486	0.004956949
1505	94.2	173.396	157.83923	0.005767146
1506	94.25	148.005	139.65516	0.006756528
1507	94.3	127.91	135.08069	0.007817997
1508	94.35	123.289	135.59373	0.008111024
1509	94.4	118.171	130.4669	0.008462313
1510	94.45	104.26	120.49064	0.009591406
1511	94.5	99.245	110.56746	0.010076074
1512	94.55	98.569	102.87344	0.010145177
1513	94.6	94.142	97.45572	0.010622251
1514	94.65	95.244	94.59715	0.010499349
1515	94.7	97.201	94.22101	0.01028796
1516	94.75	93.213	96.73136	0.010728117
1517	94.8	99.606	103.29078	0.010039556
1518	94.85	106.856	114.52744	0.009358389
1519	94.9	113.467	124.97858	0.008813135
1520	94.95	117.06	122.18233	0.008542628
1521	95	107.401	108.82025	0.0093109
1522	95.05	87.892	97.07909	0.0113776
1523	95.1	84.523	89.73865	0.011831099
1524	95.15	81.505	85.43097	0.012269186
1525	95.2	80.466	82.86096	0.012427609
1526	95.25	77.145	81.2692	0.012962603
1527	95.3	73.294	80.26704	0.013643682
1528	95.35	75.976	79.65258	0.013162051
1529	95.4	74.816	79.33142	0.013366125
1530	95.45	78.898	79.26352	0.012674593
1531	95.5	80.886	79.45935	0.012363079
1532	95.55	79.922	79.98625	0.012512199
1533	95.6	77.874	80.99101	0.012841256
1534	95.65	80.511	82.66143	0.012420663
1535	95.7	82.2	84.79043	0.01216545
1536	95.75	81.475	86.0821	0.012273704
1537	95.8	85.313	85.89306	0.011721543
1538	95.85	79.506	85.79862	0.012577667
1539	95.9	83.624	86.82067	0.011958289
1540	95.95	87.896	89.18989	0.011377082
1541	96	96.534	93.31472	0.010359044
1542	96.05	113.617	100.16418	0.0088015
1543	96.1	128.316	111.64997	0.00779326
1544	96.15	151.58	130.68616	0.006597176
1545	96.2	171.813	157.28708	0.005820281
1546	96.25	192.709	176.57906	0.005189171
1547	96.3	194.093	176.08543	0.005152169
1548	96.35	189.572	167.39672	0.005275041
1549	96.4	179.474	157.98359	0.005571838
1550	96.45	165.238	156.63346	0.006051877
1551	96.5	155.596	165.96145	0.0064269
1552	96.55	160.267	178.06806	0.006239588
1553	96.6	149.573	174.99105	0.006685699
1554	96.65	136.951	159.54797	0.007301882
1555	96.7	126.617	138.11993	0.007897834
1556	96.75	103.618	117.84219	0.009650833
1557	96.8	96.176	104.05873	0.010397604
1558	96.85	91.418	95.67458	0.010938765
1559	96.9	86.584	90.61729	0.011549478
1560	96.95	81.11	87.57552	0.012328936
1561	97	83.508	85.80969	0.011974901
1562	97.05	82.825	84.74859	0.012073649
1563	97.1	79.596	83.74134	0.012563445
1564	97.15	80.638	82.60933	0.012401101
1565	97.2	78.173	81.73332	0.012792141
1566	97.25	79.352	81.2541	0.012602077
1567	97.3	80.062	81.12024	0.01249032
1568	97.35	80.794	81.27328	0.012377157
1569	97.4	77.425	81.71006	0.012915725
1570	97.45	79.418	82.41631	0.012591604
1571	97.5	83.037	83.32366	0.012042824
1572	97.55	86.857	84.44274	0.011513177
1573	97.6	90.998	86.02529	0.010989253
1574	97.65	91.569	88.38201	0.010920726
1575	97.7	101.417	91.96396	0.00986028
1576	97.75	111.67	97.55285	0.008954957
1577	97.8	123.325	106.39164	0.008108656
1578	97.85	135.657	119.69932	0.007371533
1579	97.9	144.699	135.28253	0.006910898
1580	97.95	150.771	142.86223	0.006632575
1581	98	150.346	139.59666	0.006651324
1582	98.05	157.935	138.35331	0.006331719
1583	98.1	186.553	147.57668	0.005360407
1584	98.15	214.51	171.04163	0.004661787
1585	98.2	244.343	209.93241	0.004092608
1586	98.25	265.905	250.35401	0.003760742
1587	98.3	247.412	256.67791	0.004041841
1588	98.35	212.797	222.53396	0.004699314
1589	98.4	181.4	181.56452	0.005512679
1590	98.45	155.226	153.47045	0.00644222
1591	98.5	136.386	138.54322	0.007332131
1592	98.55	122.356	133.31669	0.008172873
1593	98.6	122.505	135.92757	0.008162932
1594	98.65	141.248	146.84364	0.007079746
1595	98.7	161.613	168.78918	0.006187621
1596	98.75	193.549	205.23335	0.00516665
1597	98.8	234.415	252.93406	0.004265939
1598	98.85	257.124	288.155	0.003889174
1599	98.9	245.535	287.61204	0.004072739
1600	98.95	232.342	259.97669	0.004304
1601	99	214.232	224.48232	0.004667837
1602	99.05	188.095	195.21111	0.005316462
1603	99.1	183.949	180.12989	0.005436289
1604	99.15	189.21	180.83474	0.005285133
1605	99.2	218.964	198.27126	0.004566961
1606	99.25	273.031	235.7948	0.003662588
1607	99.3	326.62	295.77249	0.003061662
1608	99.35	387.43	364.94937	0.002581111
1609	99.4	423.642	407.66255	0.002360484
1610	99.45	414.916	410.08416	0.002410126
1611	99.5	405.084	386.66483	0.002468624
1612	99.55	360.197	349.82919	0.002776259
1613	99.6	321.352	312.32952	0.003111852
1614	99.65	288.883	275.35729	0.003461609
1615	99.7	256.801	250.67909	0.003894066
1616	99.75	246.435	249.46804	0.004057865
1617	99.8	253.44	265.84245	0.003945707
1618	99.85	244.792	274.60089	0.004085101
1619	99.9	229.622	250.89993	0.004354983
1620	99.95	195.57	207.70754	0.005113259
1621	100	171.519	170.58381	0.005830258
1622	100.05	142.255	146.8741	0.00702963
1623	100.1	130.415	134.67869	0.00766783
1624	100.15	126.655	130.37776	0.007895464
1625	100.2	117.228	128.23853	0.008530385
1626	100.25	110.671	121.52135	0.009035791
1627	100.3	99.25	111.16	0.010075567
1628	100.35	98.045	102.01104	0.010199398
1629	100.4	94.531	95.56219	0.01057854
1630	100.45	84.26	91.42262	0.011868028
1631	100.5	80.696	88.97329	0.012392188
1632	100.55	84.251	87.66745	0.011869295
1633	100.6	81.154	86.82197	0.012322252
1634	100.65	81.476	85.79181	0.012273553
1635	100.7	81.045	84.48246	0.012338824
1636	100.75	78.802	83.19782	0.012690033
1637	100.8	78.858	82.42629	0.012681022
1638	100.85	78.56	82.41578	0.012729124
1639	100.9	79.165	83.07739	0.012631845
1640	100.95	84.561	84.0697	0.011825783
1641	101	86.434	85.07558	0.011569521
1642	101.05	81.022	86.48223	0.012342327
1643	101.1	88.528	87.81782	0.011295861
1644	101.15	82.075	87.28431	0.012183978
1645	101.2	82.32	84.89898	0.012147716
1646	101.25	80.122	82.50497	0.012480967
1647	101.3	79.019	80.93101	0.012655184
1648	101.35	73.528	80.14446	0.013600261
1649	101.4	77.55	80.07031	0.012894907
1650	101.45	80.075	80.75755	0.012488292
1651	101.5	80.969	82.1992	0.012350406
1652	101.55	78.856	84.16745	0.012681343
1653	101.6	86.88	86.429	0.011510129
1654	101.65	84.331	89.39248	0.011858036
1655	101.7	94.829	94.09589	0.010545297
1656	101.75	106.437	101.42475	0.009395229
1657	101.8	110.849	110.49754	0.009021281
1658	101.85	113.297	117.04638	0.008826359
1659	101.9	111.552	116.29768	0.008964429
1660	101.95	101.69	108.54441	0.009833809
1661	102	97.373	99.17629	0.010269787
1662	102.05	86.275	91.99714	0.011590843
1663	102.1	81.437	87.56875	0.012279431
1664	102.15	85.535	85.30084	0.011691121
1665	102.2	92.545	84.64443	0.010805554
1666	102.25	88.229	85.25975	0.011334142
1667	102.3	89.9	86.94473	0.011123471
1668	102.35	93.403	89.39888	0.010706294
1669	102.4	97.36	92.33082	0.010271159
1670	102.45	97.112	96.15745	0.010297389
1671	102.5	102.229	102.0833	0.00978196
1672	102.55	112.113	111.27877	0.008919572
1673	102.6	118.574	123.39296	0.008433552
1674	102.65	140.682	135.5389	0.00710823
1675	102.7	147.004	145.62016	0.006802536
1676	102.75	160.263	154.37484	0.006239743
1677	102.8	160.45	158.56577	0.006232471
1678	102.85	156.348	153.86812	0.006395988
1679	102.9	157.794	144.45227	0.006337377
1680	102.95	151.026	137.03241	0.006621376
1681	103	152.827	136.16922	0.006543346
1682	103.05	164.217	143.34847	0.006089504
1683	103.1	168.95	156.24226	0.005918911
1684	103.15	183.853	167.59758	0.005439128
1685	103.2	188.733	173.17383	0.00529849
1686	103.25	188.555	180.05247	0.005303492
1687	103.3	191.257	193.36468	0.005228567
1688	103.35	197.639	204.85222	0.00505973
1689	103.4	200.703	202.1029	0.004982487
1690	103.45	197.718	190.32531	0.005057708
1691	103.5	186.706	181.86791	0.005356014
1692	103.55	184.006	175.99438	0.005434605
1693	103.6	178.73	164.78346	0.005595032
1694	103.65	158.006	149.04932	0.006328874
1695	103.7	137.167	133.7322	0.007290383
1696	103.75	116.408	119.31661	0.008590475
1697	103.8	104.575	106.51916	0.009562515
1698	103.85	99.178	96.67444	0.010082881
1699	103.9	91.237	89.74485	0.010960466
1700	103.95	84.753	84.98968	0.011798992
1701	104	82.138	81.70069	0.012174633
1702	104.05	83.311	79.37113	0.012003217
1703	104.1	79.692	77.68614	0.012548311
1704	104.15	76.872	76.45787	0.013008638
1705	104.2	73.495	75.59747	0.013606368
1706	104.25	76.048	75.06458	0.01314959
1707	104.3	75.184	74.87698	0.013300702
1708	104.35	82.546	74.99697	0.012114457
1709	104.4	82.757	75.27434	0.01208357
1710	104.45	80.746	75.29028	0.012384514
1711	104.5	79.783	74.69732	0.012533998
1712	104.55	77.972	73.73761	0.012825117
1713	104.6	76.991	72.8515	0.012988531
1714	104.65	74.947	72.20916	0.013342762
1715	104.7	76.848	71.80575	0.0130127
1716	104.75	70.874	71.60302	0.014109547
1717	104.8	72.844	71.55072	0.013727967
1718	104.85	74.206	71.63453	0.013475999
1719	104.9	76.025	71.8638	0.013153568
1720	104.95	71.636	72.23983	0.013959462
1721	105	72.467	72.80947	0.013799385
1722	105.05	70.286	73.63501	0.014227584
1723	105.1	76.124	74.874	0.013136462
1724	105.15	75.507	76.71562	0.013243805
1725	105.2	83.982	79.52411	0.011907313
1726	105.25	88.657	83.80947	0.011279425
1727	105.3	92.006	90.22652	0.010868856
1728	105.35	91.677	99.22734	0.010907861
1729	105.4	99.717	110.29296	0.01002838
1730	105.45	109.715	121.09846	0.009114524
1731	105.5	111.235	128.20307	0.008989976
1732	105.55	113.31	129.17028	0.008825346
1733	105.6	111.677	122.78238	0.008954395
1734	105.65	108.247	111.23249	0.009238131
1735	105.7	92.989	99.34293	0.01075396
1736	105.75	83.789	89.90989	0.011934741
1737	105.8	78.563	83.31595	0.012728638
1738	105.85	73.934	78.9469	0.013525577
1739	105.9	78.102	76.11568	0.012803769
1740	105.95	79.373	74.2532	0.012598743
1741	106	75.099	73.00931	0.013315757
1742	106.05	71.149	72.14189	0.014055011
1743	106.1	72.655	71.56072	0.013763678
1744	106.15	69.243	71.21091	0.014441893
1745	106.2	75.746	71.07922	0.013202017
1746	106.25	75.01	71.19054	0.013331556
1747	106.3	77.754	71.60928	0.012861075
1748	106.35	78.597	72.4358	0.012723132
1749	106.4	83.394	73.78039	0.01199127
1750	106.45	81.554	75.66434	0.012261814
1751	106.5	86.708	77.75564	0.011532961
1752	106.55	91.176	79.21365	0.010967799
1753	106.6	91.549	79.53602	0.010923112
1754	106.65	87.319	79.24497	0.011452261
1755	106.7	88.432	79.14254	0.011308124
1756	106.75	84.156	79.57825	0.011882694
1757	106.8	87.082	79.98444	0.011483429
1758	106.85	84.246	79.50708	0.01187
1759	106.9	86.072	78.45029	0.01161818
1760	106.95	82.501	77.72865	0.012121065
1761	107	81.212	77.53379	0.012313451
1762	107.05	81.184	77.20406	0.012317698
1763	107.1	72.925	76.08804	0.013712719
1764	107.15	74.626	74.43835	0.013400155
1765	107.2	77.514	72.89352	0.012900895
1766	107.25	69.614	71.74698	0.014364927
1767	107.3	70.381	71.00828	0.01420838
1768	107.35	77.311	70.60358	0.01293477
1769	107.4	75.791	70.44492	0.013194179
1770	107.45	74.476	70.46877	0.013427144
1771	107.5	72.89	70.63945	0.013719303
1772	107.55	75.004	70.9399	0.013332622
1773	107.6	71.328	71.36641	0.01401974
1774	107.65	74.807	71.93394	0.013367733
1775	107.7	74.649	72.66917	0.013396027
1776	107.75	73.812	73.60093	0.013547933
1777	107.8	79.387	74.78852	0.012596521
1778	107.85	76.93	76.30634	0.01299883
1779	107.9	76.621	78.27349	0.013051252
1780	107.95	77.301	80.882	0.012936443
1781	108	79.752	84.45565	0.01253887
1782	108.05	87.193	89.54272	0.011468811
1783	108.1	99.761	97.02764	0.010023957
1784	108.15	108.977	108.20364	0.009176248
1785	108.2	126.962	124.69592	0.007876372
1786	108.25	148.266	147.98412	0.006744635
1787	108.3	181.937	177.45922	0.005496408
1788	108.35	210.505	206.42045	0.004750481
1789	108.4	228.53	221.85923	0.004375793
1790	108.45	235.089	218.78032	0.004253708
1791	108.5	216.753	204.29575	0.004613546
1792	108.55	194.92	183.1634	0.00513031
1793	108.6	169.53	159.73627	0.005898661
1794	108.65	152.201	140.4163	0.006570259
1795	108.7	133.094	128.37424	0.007513487
1796	108.75	124.146	123.42188	0.008055032
1797	108.8	124.235	123.48272	0.008049261
1798	108.85	117.97	124.25867	0.008476731
1799	108.9	119.963	120.51328	0.008335904
1800	108.95	111.007	111.64822	0.009008441
1801	109	110.608	101.60364	0.009040937
1802	109.05	101.55	93.19185	0.009847366
1803	109.1	99.029	87.00946	0.010098052
1804	109.15	93.86	82.74003	0.010654166
1805	109.2	82.96	79.89148	0.012054002
1806	109.25	83.424	78.03317	0.011986958
1807	109.3	84.535	76.85698	0.01182942
1808	109.35	87.464	76.17189	0.011433275
1809	109.4	78.216	75.87519	0.012785108
1810	109.45	77.009	75.92379	0.012985495
1811	109.5	78.806	76.31445	0.012689389
1812	109.55	76.616	77.06835	0.013052104
1813	109.6	82.462	78.23947	0.012126798
1814	109.65	80.872	79.88436	0.012365219
1815	109.7	82.823	82.1261	0.012073941
1816	109.75	96.636	85.23208	0.01034811
1817	109.8	101.167	89.6395	0.009884646
1818	109.85	102.034	96.04562	0.009800655
1819	109.9	108.517	105.51505	0.009215146
1820	109.95	130.96	119.29053	0.007635919
1821	110	152.607	138.13369	0.006552779
1822	110.05	184.409	161.17883	0.005422729
1823	110.1	200.789	185.50449	0.004980353
1824	110.15	219.499	206.576	0.004555829
1825	110.2	230.772	215.71376	0.004333281
1826	110.25	223.113	204.47621	0.004482034
1827	110.3	199.091	178.305	0.005022829
1828	110.35	157.56	150.47146	0.006346789
1829	110.4	127.327	128.19721	0.007853794
1830	110.45	106.443	112.59287	0.0093947
1831	110.5	88.868	102.58067	0.011252644
1832	110.55	83.762	96.66786	0.011938588
1833	110.6	82.605	93.35324	0.012105805
1834	110.65	79.762	91.17718	0.012537298
1835	110.7	78.831	89.23674	0.012685365
1836	110.75	78.58	87.65352	0.012725884
1837	110.8	85.511	86.96599	0.011694402
1838	110.85	83.842	87.59714	0.011927196
1839	110.9	88.632	89.94747	0.011282607
1840	110.95	96.873	94.28053	0.010322794
1841	111	103.646	100.48108	0.009648226
1842	111.05	103.112	107.57433	0.009698192
1843	111.1	109.821	114.05695	0.009105727
1844	111.15	104.286	118.66726	0.009589015
1845	111.2	108.499	120.10546	0.009216675
1846	111.25	108.402	118.1027	0.009224922
1847	111.3	105.121	114.33451	0.009512847
1848	111.35	101.379	110.93811	0.009863976
1849	111.4	105.897	109.78998	0.009443138
1850	111.45	100.434	111.28003	0.009956788
1851	111.5	111.114	113.33302	0.008999766
1852	111.55	107.967	112.60389	0.009262089
1853	111.6	109.626	108.10908	0.009121924
1854	111.65	105.528	101.46057	0.009476158
1855	111.7	94.845	94.50356	0.010543518
1856	111.75	88.772	88.68073	0.011264813
1857	111.8	87.885	84.62492	0.011378506
1858	111.85	84.437	82.30557	0.011843149
1859	111.9	84.663	81.48403	0.011811535
1860	111.95	80.928	81.92677	0.012356663
1861	112	83.407	83.41515	0.011989401
1862	112.05	89.894	85.76658	0.011124213
1863	112.1	87.003	88.69219	0.011493857
1864	112.15	89.193	91.16389	0.011211642
1865	112.2	89.079	91.43508	0.01122599
1866	112.25	89.217	89.10537	0.011208626
1867	112.3	83.741	85.77198	0.011941582
1868	112.35	85.392	82.95137	0.011710699
1869	112.4	83.339	81.16059	0.011999184
1870	112.45	84.49	80.41545	0.01183572
1871	112.5	84.575	80.61183	0.011823825
1872	112.55	85.936	81.68073	0.011636567
1873	112.6	86.806	83.65132	0.011519941
1874	112.65	93.206	86.68614	0.010728923
1875	112.7	87.546	91.1066	0.011422566
1876	112.75	100.822	97.41945	0.00991847
1877	112.8	107.149	106.33667	0.009332798
1878	112.85	117.347	118.58785	0.008521735
1879	112.9	131.829	134.39515	0.007585584
1880	112.95	152.275	152.8051	0.006567066
1881	113	172.14	171.32709	0.005809225
1882	113.05	187.448	185.75224	0.005334813
1883	113.1	205.743	193.21533	0.004860433
1884	113.15	205.76	196.09026	0.004860031
1885	113.2	209.161	197.78469	0.004781006
1886	113.25	203.159	200.91784	0.004922253
1887	113.3	202.3	207.84466	0.004943154
1888	113.35	209.705	216.98679	0.004768604
1889	113.4	211.708	224.55594	0.004723487
1890	113.45	219.828	230.43725	0.004549011
1891	113.5	221.247	235.26431	0.004519835
1892	113.55	223.42	235.43203	0.004475875
1893	113.6	225.575	229.24271	0.004433115
1894	113.65	220.331	220.44028	0.004538626
1895	113.7	192.784	210.7842	0.005187152
1896	113.75	195.62	199.84279	0.005111952
1897	113.8	194.784	189.14252	0.005133892
1898	113.85	193.389	179.04419	0.005170925
1899	113.9	187.786	168.63718	0.005325211
1900	113.95	175.491	157.94575	0.005698298
1901	114	160.868	146.57207	0.006216277
1902	114.05	148.617	135.11308	0.006728705
1903	114.1	139.738	125.43563	0.00715625
1904	114.15	132.683	118.3365	0.007536761
1905	114.2	127.452	113.84495	0.007846091
1906	114.25	128.685	112.33772	0.007770913
1907	114.3	127.208	114.07452	0.007861141
1908	114.35	126.263	118.34844	0.007919977
1909	114.4	126.405	122.75393	0.007911079
1910	114.45	127.177	123.94408	0.007863057
1911	114.5	121.631	120.99003	0.008221588
1912	114.55	119.296	115.84499	0.008382511
1913	114.6	117.346	110.66022	0.008521807
1914	114.65	109.766	107.13385	0.009110289
1915	114.7	102.228	106.43411	0.009782056
1916	114.75	105.41	109.07314	0.009486766
1917	114.8	107.456	114.95053	0.009306135
1918	114.85	121.129	122.95063	0.008255661
1919	114.9	122.15	130.26391	0.008186656
1920	114.95	119.766	133.64094	0.008349615
1921	115	122.888	133.37363	0.008137491
1922	115.05	124.463	133.70639	0.008034516
1923	115.1	125.513	138.73071	0.007967302
1924	115.15	146.462	150.61105	0.00682771
1925	115.2	158.475	169.82234	0.006310144
1926	115.25	186.334	193.88522	0.005366707
1927	115.3	199.151	213.91624	0.005021315
1928	115.35	209.408	216.44325	0.004775367
1929	115.4	193.397	198.0173	0.005170711
1930	115.45	171.093	169.97171	0.005844774
1931	115.5	144.06	143.56849	0.006941552
1932	115.55	115.152	122.93884	0.008684174
1933	115.6	97.755	108.07147	0.010229656
1934	115.65	88.88	97.76629	0.011251125
1935	115.7	81.022	90.76645	0.012342327
1936	115.75	74.28	86.07718	0.013462574
1937	115.8	82.448	83.01322	0.012128857
1938	115.85	81.949	81.14763	0.012202711
1939	115.9	78.935	80.21924	0.012668651
1940	115.95	82.795	80.0104	0.012078024
1941	116	77.262	80.23467	0.012942973
1942	116.05	81.766	80.64679	0.012230022
1943	116.1	83.961	81.41241	0.011910292
1944	116.15	85.08	83.08785	0.011753644
1945	116.2	84.151	86.23286	0.0118834
1946	116.25	90.321	91.20718	0.011071622
1947	116.3	100.041	97.90868	0.009995902
1948	116.35	106.217	105.03787	0.009414689
1949	116.4	105.997	109.51408	0.009434229
1950	116.45	110.127	108.71553	0.009080425
1951	116.5	110.324	103.94539	0.009064211
1952	116.55	101.71	98.78825	0.009831875
1953	116.6	92.082	95.59141	0.010859886
1954	116.65	89.345	94.93971	0.011192568
1955	116.7	92.925	96.13597	0.010761367
1956	116.75	93.961	97.2227	0.010642713
1957	116.8	92.719	95.91274	0.010785276
1958	116.85	85.984	91.86505	0.011630071
1959	116.9	82.183	86.8331	0.012167967
1960	116.95	85.89	82.43091	0.011642799
1961	117	81.384	79.21607	0.012287428
1962	117.05	77.399	77.1757	0.012920064
1963	117.1	77.782	76.12442	0.012856445
1964	117.15	78.623	75.9152	0.012718924
1965	117.2	77.151	76.48664	0.012961595
1966	117.25	74.194	77.87588	0.013478179
1967	117.3	82.213	80.20846	0.012163526
1968	117.35	83.17	83.67059	0.012023566
1969	117.4	96.052	88.37807	0.010411027
1970	117.45	100.538	94.0304	0.009946488
1971	117.5	103.752	99.41739	0.009638368
1972	117.55	111.999	102.83991	0.008928651
1973	117.6	110.826	104.12343	0.009023153
1974	117.65	114.321	105.20264	0.008747299
1975	117.7	109.586	108.08205	0.009125253
1976	117.75	117.045	113.35807	0.008543722
1977	117.8	121.414	119.72293	0.008236282
1978	117.85	125.336	124.07708	0.007978554
1979	117.9	120.305	124.35348	0.008312206
1980	117.95	118.603	122.5064	0.00843149
1981	118	118.114	122.11903	0.008466397
1982	118.05	124.775	125.46208	0.008014426
1983	118.1	130.824	133.53116	0.007643857
1984	118.15	145.953	146.49892	0.006851521
1985	118.2	160.643	163.43159	0.006224983
1986	118.25	183.052	182.76837	0.005462929
1987	118.3	204.57	204.403	0.004888302
1988	118.35	230.77	228.06667	0.004333319
1989	118.4	257.173	248.10336	0.003888433
1990	118.45	264.958	256.70543	0.003774183
1991	118.5	263.386	252.98995	0.003796709
1992	118.55	246.149	239.19685	0.00406258
1993	118.6	215.694	216.79998	0.004636198
1994	118.65	190.615	191.51023	0.005246177
1995	118.7	168.036	170.05176	0.005951106
1996	118.75	151.496	155.30458	0.006600834
1997	118.8	143.381	147.33683	0.006974425
1998	118.85	136.637	145.54971	0.007318662
1999	118.9	148.523	149.70212	0.006732964
2000	118.95	157.752	160.25671	0.006339064
2001	119	172.999	178.47261	0.00578038
2002	119.05	202.878	206.26768	0.004929071
2003	119.1	239.756	245.39307	0.004170907
2004	119.15	298.486	294.69922	0.003350241
2005	119.2	359.107	345.13463	0.002784685
2006	119.25	390.823	380.3961	0.002558703
2007	119.3	390.898	392.20021	0.002558212
2008	119.35	381.257	384.54213	0.002622903
2009	119.4	339.719	358.34168	0.002943609
2010	119.45	308.822	315.94983	0.003238111
2011	119.5	260.705	269.71009	0.003835753
2012	119.55	233.031	231.45873	0.004291275
2013	119.6	210.806	205.46749	0.004743698
2014	119.65	190.063	191.13184	0.005261413
2015	119.7	183.486	186.00927	0.005450007
2016	119.75	180.49	186.49541	0.005540473
2017	119.8	188.182	187.7263	0.005314005
2018	119.85	185.447	185.69303	0.005392376
2019	119.9	177.572	180.52834	0.005631518
2020	119.95	163.261	175.59242	0.006125162
2021	120	163.02	174.28648	0.006134217
2022	120.05	158.573	177.14302	0.006306244
2023	120.1	154.746	180.47149	0.006462203
2024	120.15	158.204	179.42698	0.006320953
2025	120.2	159.094	174.50862	0.006285592
2026	120.25	159.967	171.07253	0.006251289
2027	120.3	171.472	173.49013	0.005831856
2028	120.35	180.847	183.81851	0.005529536
2029	120.4	197.893	203.31128	0.005053236
2030	120.45	238.198	232.38775	0.004198188
2031	120.5	273.948	267.75888	0.003650328
2032	120.55	287.687	298.64708	0.003476
2033	120.6	310.77	310.55341	0.003217814
2034	120.65	299.492	301.08236	0.003338987
2035	120.7	288.106	282.87745	0.003470945
2036	120.75	266.651	264.96828	0.00375022
2037	120.8	244.955	243.91357	0.004082382
2038	120.85	219.139	215.34037	0.004563314
2039	120.9	186.582	183.87199	0.005359574
2040	120.95	162.562	156.25792	0.006151499
2041	121	134.265	134.94342	0.007447957
2042	121.05	111.839	119.33916	0.008941425
2043	121.1	94.957	108.0964	0.010531082
2044	121.15	93.132	100.0274	0.010737448
2045	121.2	90.843	94.27546	0.011008003
2046	121.25	85.564	90.25269	0.011687158
2047	121.3	82.086	87.50274	0.012182345
2048	121.35	82.658	85.51042	0.012098043
2049	121.4	83.706	83.6677	0.011946575
2050	121.45	84.141	81.66569	0.011884812
2051	121.5	86.969	79.73375	0.01149835
2052	121.55	91.399	78.21733	0.010941039
2053	121.6	84.507	77.28301	0.011833339
2054	121.65	83.16	76.97972	0.012025012
2055	121.7	89.526	77.34317	0.011169939
2056	121.75	86.415	78.45553	0.011572065
2057	121.8	88.546	80.46352	0.011293565
2058	121.85	92.244	83.54695	0.010840813
2059	121.9	100.761	87.75383	0.009924475
2060	121.95	99.262	92.59706	0.010074349
2061	122	103.682	96.71812	0.009644876
2062	122.05	104.637	98.78272	0.009556849
2063	122.1	107.046	99.35445	0.009341778
2064	122.15	110.347	100.56342	0.009062322
2065	122.2	117.103	104.1968	0.008539491
2066	122.25	116.736	111.20161	0.008566338
2067	122.3	127.927	121.79361	0.007816958
2068	122.35	143.99	134.69305	0.006944927
2069	122.4	151.584	146.00402	0.006597002
2070	122.45	154.771	150.895	0.006461159
2071	122.5	144.805	148.35643	0.006905839
2072	122.55	146.439	142.44261	0.006828782
2073	122.6	138.341	138.23128	0.007228515
2074	122.65	137.403	138.00932	0.007277861
2075	122.7	136.197	140.41511	0.007342306
2076	122.75	130.552	141.19682	0.007659783
2077	122.8	136.862	137.07795	0.00730663
2078	122.85	138.646	129.77601	0.007212613
2079	122.9	133.2	123.25023	0.007507508
2080	122.95	128.09	119.51301	0.007807011
2081	123	121.658	118.28129	0.008219764
2082	123.05	122.651	118.41351	0.008153215
2083	123.1	120.595	119.69311	0.008292218
2084	123.15	124.339	123.29664	0.008042529
2085	123.2	131.361	130.70848	0.00761261
2086	123.25	145.199	143.06802	0.0068871
2087	123.3	163.121	160.90433	0.006130419
2088	123.35	189.205	183.00642	0.005285273
2089	123.4	198.183	204.4815	0.005045841
2090	123.45	210.693	217.68733	0.004746242
2091	123.5	221.935	219.05473	0.004505824
2092	123.55	211.122	212.64239	0.004736598
2093	123.6	201.492	205.35844	0.004962976
2094	123.65	192.27	202.89854	0.005201019
2095	123.7	198.505	207.78422	0.005037656
2096	123.75	201.04	217.70126	0.004974135
2097	123.8	205.189	225.28496	0.004873556
2098	123.85	200.851	222.95108	0.004978815
2099	123.9	193.278	210.38394	0.005173895
2100	123.95	188.038	193.46171	0.005318074
2101	124	172.581	178.13058	0.005794381
2102	124.05	167.93	168.01252	0.005954862
2103	124.1	165.061	164.59779	0.006058366
2104	124.15	173.08	168.00452	0.005777675
2105	124.2	178.74	177.3375	0.005594719
2106	124.25	193.497	190.6899	0.005168039
2107	124.3	209.885	206.27393	0.004764514
2108	124.35	226.953	224.41501	0.004406199
2109	124.4	247.827	246.53979	0.004035073
2110	124.45	275.96	270.78226	0.003623714
2111	124.5	289.946	289.2282	0.003448918
2112	124.55	286.091	291.83432	0.003495391
2113	124.6	272.181	274.8034	0.003674026
2114	124.65	244.906	243.88885	0.004083199
2115	124.7	220.604	209.26602	0.004533009
2116	124.75	191.401	178.58952	0.005224633
2117	124.8	168.52	154.79012	0.005934014
2118	124.85	141.954	137.82836	0.007044536
2119	124.9	133.006	126.65089	0.007518458
2120	124.95	125.513	120.05575	0.007967302
2121	125	122.331	116.7382	0.008174543
2122	125.05	114.862	115.00967	0.008706099
2123	125.1	119.246	112.92163	0.008386026
2124	125.15	117.03	109.3072	0.008544818
2125	125.2	110.496	104.50336	0.009050101
2126	125.25	109.349	99.68592	0.009145031
2127	125.3	106.226	95.84775	0.009413891
2128	125.35	99.204	93.27839	0.010080239
2129	125.4	97.689	91.56248	0.010236567
2130	125.45	92.866	89.97759	0.010768204
2131	125.5	92.382	88.1915	0.01082462
2132	125.55	89.326	86.52383	0.011194949
2133	125.6	84.322	85.44438	0.011859301
2134	125.65	85.072	85.12318	0.011754749
2135	125.7	81.522	85.42588	0.012266627
2136	125.75	82.751	86.16008	0.012084446
2137	125.8	85.454	87.2556	0.011702202
2138	125.85	89.359	88.78475	0.011190815
2139	125.9	87.049	90.87104	0.011487783
2140	125.95	95.083	93.74322	0.010517127
2141	126	99.261	97.73772	0.01007445
2142	126.05	106.191	103.35257	0.009416994
2143	126.1	122.21	111.24598	0.008182636
2144	126.15	132.825	122.14972	0.007528703
2145	126.2	152.364	136.41876	0.00656323
2146	126.25	175.627	153.20229	0.005693885
2147	126.3	181.727	169.44625	0.00550276
2148	126.35	191.816	179.97662	0.005213329
2149	126.4	183.361	180.35184	0.005453722
2150	126.45	171.232	170.48884	0.00584003
2151	126.5	149.582	154.56412	0.006685296
2152	126.55	130.595	137.42494	0.007657261
2153	126.6	116.412	121.96222	0.00859018
2154	126.65	106.767	109.21994	0.00936619
2155	126.7	93.404	99.3668	0.01070618
2156	126.75	93.238	92.21261	0.010725241
2157	126.8	90.907	87.42745	0.011000253
2158	126.85	85.297	84.6919	0.011723742
2159	126.9	82.891	83.78354	0.012064036
2160	126.95	86.188	84.597	0.011602543
2161	127	90.124	87.11607	0.011095824
2162	127.05	95.766	91.32093	0.010442119
2163	127.1	106.11	96.9974	0.009424182
2164	127.15	112.739	103.40607	0.008870045
2165	127.2	114.239	108.93035	0.008753578
2166	127.25	114.914	111.38548	0.00870216
2167	127.3	104.191	109.4054	0.009597758
2168	127.35	98.594	103.69777	0.010142605
2169	127.4	95.792	96.36835	0.010439285
2170	127.45	90.132	89.27433	0.011094839
2171	127.5	82.063	83.33784	0.01218576
2172	127.55	85.505	78.7997	0.011695223
2173	127.6	83.911	75.58062	0.011917389
2174	127.65	77.79	73.51169	0.012855123
2175	127.7	80.36	72.43405	0.012444002
2176	127.75	78.832	72.23657	0.012685204
2177	127.8	78.356	72.88065	0.012762265
2178	127.85	81.239	74.41113	0.012309359
2179	127.9	81.265	76.96189	0.012305421
2180	127.95	84.817	80.75471	0.011790089
2181	128	90.583	86.08736	0.011039599
2182	128.05	95.013	93.3027	0.010524876
2183	128.1	110.479	102.71867	0.009051494
2184	128.15	122.648	114.47259	0.008153415
2185	128.2	130.128	128.18908	0.007684741
2186	128.25	141.965	142.43308	0.00704399
2187	128.3	149.285	154.3072	0.006698597
2188	128.35	157.111	160.19842	0.006364927
2189	128.4	149.78	158.01642	0.006676459
2190	128.45	138.584	148.84367	0.00721584
2191	128.5	130.264	136.02616	0.007676718
2192	128.55	106.94	122.88734	0.009351038
2193	128.6	103.76	111.4281	0.009637625
2194	128.65	96.588	102.4198	0.010353253
2195	128.7	93.491	95.95951	0.010696217
2196	128.75	88.043	91.89063	0.011358086
2197	128.8	85.661	90.02134	0.011673924
2198	128.85	90.192	90.22238	0.011087458
2199	128.9	90.047	92.46253	0.011105312
2200	128.95	95.954	96.80421	0.01042166
2201	129	100.132	103.36034	0.009986817
2202	129.05	109.615	112.19425	0.009122839
2203	129.1	123.195	123.11707	0.008117213
2204	129.15	139.038	135.34306	0.007192278
2205	129.2	142.147	147.13935	0.007034971
2206	129.25	143.348	156.01657	0.00697603
2207	129.3	152.049	159.91065	0.006576827
2208	129.35	148.512	158.38873	0.006733463
2209	129.4	142.571	152.55748	0.007014049
2210	129.45	138.905	144.36412	0.007199165
2211	129.5	136.441	135.97738	0.007329175
2212	129.55	129.441	129.18302	0.007725527
2213	129.6	126.848	124.98705	0.007883451
2214	129.65	129.615	123.60429	0.007715156
2215	129.7	122.771	124.56785	0.008145246
2216	129.75	124.627	126.70824	0.008023943
2217	129.8	126.485	128.23866	0.007906076
2218	129.85	123.797	127.40311	0.00807774
2219	129.9	120.256	123.59488	0.008315593
2220	129.95	117.814	117.72639	0.008487956
2221	130	105.223	111.38091	0.009503626
2222	130.05	99.256	105.82859	0.010074958
2223	130.1	104.751	101.77428	0.009546448
2224	130.15	99.757	99.53757	0.010024359
2225	130.2	101.462	99.29481	0.009855907
2226	130.25	99.131	101.18769	0.010087662
2227	130.3	105.745	105.40734	0.009456712
2228	130.35	107.679	112.21048	0.009286862
2229	130.4	120.348	121.91021	0.008309237
2230	130.45	132.839	134.80668	0.00752791
2231	130.5	147.077	151.06525	0.00679916
2232	130.55	164.473	170.46888	0.006080025
2233	130.6	190.127	191.97668	0.005259642
2234	130.65	211.507	213.29786	0.004727976
2235	130.7	231.305	231.06319	0.004323296
2236	130.75	252.752	242.24681	0.003956447
2237	130.8	243.111	245.88013	0.004113347
2238	130.85	233.355	243.01994	0.004285316
2239	130.9	213.192	235.34476	0.004690608
2240	130.95	205.461	224.54706	0.004867104
2241	131	190.846	212.41802	0.005239827
2242	131.05	177.618	200.41079	0.00563006
2243	131.1	169.417	189.09519	0.005902595
2244	131.15	156.039	178.23738	0.006408654
2245	131.2	143.623	167.38425	0.006962673
2246	131.25	139.168	156.3179	0.00718556
2247	131.3	124.751	145.15504	0.008015968
2248	131.35	121.055	134.31218	0.008260708
2249	131.4	110.979	124.39152	0.009010714
2250	131.45	105.26	115.94281	0.009500285
2251	131.5	99.747	109.28921	0.010025364
2252	131.55	97.357	104.53265	0.010271475
2253	131.6	94.511	101.64818	0.010580779
2254	131.65	101.355	100.56789	0.009866311
2255	131.7	96.886	101.23891	0.010321409
2256	131.75	103.91	103.62335	0.009623713
2257	131.8	105.971	107.70236	0.009436544
2258	131.85	108.937	113.43558	0.009179618
2259	131.9	116.465	120.69406	0.008586271
2260	131.95	125.291	129.20825	0.007981419
2261	132	131.942	138.6526	0.007579088
2262	132.05	138.431	148.94713	0.007223815
2263	132.1	150.426	160.5468	0.006647787
2264	132.15	171.273	174.39883	0.005838632
2265	132.2	189.389	191.37253	0.005280138
2266	132.25	219.682	211.7698	0.004552034
2267	132.3	248.766	234.8508	0.004019842
2268	132.35	274.95	258.37804	0.003637025
2269	132.4	313.465	278.39908	0.003190149
2270	132.45	320.869	290.01936	0.003116537
2271	132.5	307.708	289.59609	0.003249834
2272	132.55	284.398	277.00669	0.003516199
2273	132.6	252.663	255.71793	0.003957841
2274	132.65	218.944	230.60376	0.004567378
2275	132.7	183.221	205.74315	0.00545789
2276	132.75	156.712	183.61529	0.006381132
2277	132.8	135.631	165.33305	0.007372946
2278	132.85	129.308	151.12151	0.007733474
2279	132.9	129.736	140.66135	0.007707961
2280	132.95	122.821	133.26706	0.00814193
2281	133	122.167	128.00407	0.008185517
2282	133.05	116.121	123.86804	0.008611707
2283	133.1	115.386	120.05322	0.008666563
2284	133.15	110.609	116.1256	0.009040856
2285	133.2	108.029	111.94112	0.009256774
2286	133.25	105.966	107.46743	0.009436989
2287	133.3	98.415	102.75415	0.010161053
2288	133.35	95.999	97.9948	0.010416775
2289	133.4	91.716	93.47793	0.010903223
2290	133.45	84.322	89.45283	0.011859301
2291	133.5	83.437	86.00058	0.011985091
2292	133.55	79.459	83.04169	0.012585107
2293	133.6	87.902	80.41102	0.011376305
2294	133.65	81.045	77.96954	0.012338824
2295	133.7	81.264	75.67338	0.012305572
2296	133.75	78.206	73.55118	0.012786743
2297	133.8	79.105	71.644	0.012641426
2298	133.85	79.886	69.96887	0.012517838
2299	133.9	72	68.52691	0.013888889
2300	133.95	75.836	67.31589	0.013186349
2301	134	77.037	66.32412	0.012980775
2302	134.05	75.371	65.52934	0.013267702
2303	134.1	72.157	64.91419	0.013858669
2304	134.15	74.964	64.48343	0.013339736
2305	134.2	69.674	64.26343	0.014352556
2306	134.25	77.253	64.28833	0.012944481
2307	134.3	74.491	64.59043	0.013424441
2308	134.35	70.455	65.19938	0.014193457
2309	134.4	69.267	66.14162	0.014436889
2310	134.45	71.236	67.43457	0.014037846
2311	134.5	73.726	69.07622	0.013563736
2312	134.55	76.536	71.0317	0.013065747
2313	134.6	81.085	73.22007	0.012332737
2314	134.65	81.535	75.51396	0.012264672
2315	134.7	78.312	77.7841	0.012769435
2316	134.75	85.863	79.9753	0.01164646
2317	134.8	91.488	82.17748	0.010930395
2318	134.85	87.64	84.61693	0.011410315
2319	134.9	92.952	87.56993	0.010758241
2320	134.95	93.243	91.27664	0.010724666
2321	135	99.501	95.8962	0.01005015
2322	135.05	109.541	101.47929	0.009129002
2323	135.1	111.597	107.94616	0.008960814
2324	135.15	115.554	115.01356	0.008653963
2325	135.2	131.008	122.17825	0.007633122
2326	135.25	138.031	128.77019	0.007244749
2327	135.3	143.249	134.13587	0.006980852
2328	135.35	146.881	137.86411	0.006808233
2329	135.4	141.841	139.89368	0.007050148
2330	135.45	137.255	140.46637	0.007285709
2331	135.5	135.718	140.0547	0.007368219
2332	135.55	142.408	139.26668	0.007022077
2333	135.6	135.914	138.72414	0.007357594
2334	135.65	141.367	138.87962	0.007073787
2335	135.7	131.485	139.92021	0.00760543
2336	135.75	137.973	141.65783	0.007247795
2337	135.8	139.094	143.63038	0.007189383
2338	135.85	140.739	145.31444	0.007105351
2339	135.9	142.295	146.34805	0.007027654
2340	135.95	138.981	146.76371	0.007195228
2341	136	136.295	146.99033	0.007337026
2342	136.05	136.038	147.69239	0.007350887
2343	136.1	137.202	149.55722	0.007288523
2344	136.15	145.213	153.12915	0.006886436
2345	136.2	151.974	158.71717	0.006580073
2346	136.25	162.459	166.3517	0.006155399
2347	136.3	179.057	175.76796	0.005584814
2348	136.35	190.222	186.43471	0.005257015
2349	136.4	203.435	197.66424	0.004915575
2350	136.45	213.201	208.7969	0.00469041
2351	136.5	221.278	219.32938	0.004519202
2352	136.55	227.649	228.85474	0.004392727
2353	136.6	238.138	236.98814	0.004199246
2354	136.65	246.031	243.18927	0.004064528
2355	136.7	255.31	246.92313	0.003916807
2356	136.75	244.553	247.85375	0.004089093
2357	136.8	242.97	245.93409	0.004115734
2358	136.85	240.029	241.45703	0.004166163
2359	136.9	226.023	234.98513	0.004424328
2360	136.95	220.883	227.22185	0.004527284
2361	137	199.32	218.94793	0.005017058
2362	137.05	189.855	210.98678	0.005267178
2363	137.1	177.003	204.09972	0.005649622
2364	137.15	168.695	198.81926	0.005927858
2365	137.2	166.572	195.31595	0.00600341
2366	137.25	169.337	193.38417	0.005905384
2367	137.3	175.027	192.50021	0.005713404
2368	137.35	179.059	192.01602	0.005584751
2369	137.4	180.296	191.4354	0.005546435
2370	137.45	171.404	190.65431	0.00583417
2371	137.5	170.326	190.00971	0.005871094
2372	137.55	173.363	190.12789	0.005768244
2373	137.6	175.707	191.61661	0.005691293
2374	137.65	183.729	194.86806	0.005442799
2375	137.7	190.784	199.93917	0.00524153
2376	137.75	200.356	206.5158	0.004991116
2377	137.8	208.839	213.93397	0.004788378
2378	137.85	228.636	221.25681	0.004373764
2379	137.9	232.433	227.42387	0.004302315
2380	137.95	229.599	231.45433	0.00435542
2381	138	225.493	232.63529	0.004434727
2382	138.05	211.85	230.71942	0.004720321
2383	138.1	200.639	225.9262	0.004984076
2384	138.15	200.131	218.89636	0.004996727
2385	138.2	184.901	210.52277	0.0054083
2386	138.25	172.901	201.7568	0.005783657
2387	138.3	166.854	193.37018	0.005993264
2388	138.35	155.183	185.86848	0.006444005
2389	138.4	149.444	179.46999	0.00669147
2390	138.45	151.319	174.18514	0.006608555
2391	138.5	145.883	169.96388	0.006854808
2392	138.55	144.54	166.83325	0.0069185
2393	138.6	143.302	164.94159	0.00697827
2394	138.65	143.371	164.49188	0.006974911
2395	138.7	150.358	165.62469	0.006650793
2396	138.75	160.563	168.31472	0.006228085
2397	138.8	172.035	172.30958	0.005812771
2398	138.85	184.382	177.09941	0.005423523
2399	138.9	197.407	181.93353	0.005065676
2400	138.95	206.283	185.91719	0.004847709
2401	139	193.608	188.21222	0.005165076
2402	139.05	191.097	188.28701	0.005232945
2403	139.1	183.879	186.08581	0.005438359
2404	139.15	177.347	182.01692	0.005638663
2405	139.2	164.372	176.7749	0.006083761
2406	139.25	163.472	171.10285	0.006117256
2407	139.3	159.449	165.59589	0.006271598
2408	139.35	149.897	160.58947	0.006671248
2409	139.4	153.74	156.12806	0.006504488
2410	139.45	149.963	151.99703	0.006668312
2411	139.5	149.796	147.81419	0.006675746
2412	139.55	143.889	143.18425	0.006949802
2413	139.6	140.071	137.85758	0.007139237
2414	139.65	135.761	131.84092	0.007365886
2415	139.7	121.004	125.37901	0.00826419
2416	139.75	111.89	118.83843	0.008937349
2417	139.8	108.181	112.57686	0.009243767
2418	139.85	107.165	106.86112	0.009331405
2419	139.9	103.511	101.84353	0.009660809
2420	139.95	104.743	97.57454	0.009547177
2421	140	99.908	94.03046	0.010009208
2422	140.05	99.943	91.14587	0.010005703
2423	140.1	105.195	88.84189	0.009506155
2424	140.15	104.917	87.05771	0.009531344
2425	140.2	106.771	85.73764	0.009365839
2426	140.25	104.994	84.835	0.009524354
2427	140.3	104.864	84.27982	0.009536161
2428	140.35	106.176	83.97705	0.009418324
2429	140.4	103.757	83.80304	0.009637904
2430	140.45	104.275	83.61337	0.009590026
2431	140.5	102.563	83.25802	0.009750105
2432	140.55	96.519	82.60409	0.010360654
2433	140.6	100.934	81.56	0.009907464
2434	140.65	95.706	80.08755	0.010448666
2435	140.7	88.808	78.21281	0.011260247
2436	140.75	84.592	76.00132	0.011821449
2437	140.8	88.39	73.54233	0.011313497
2438	140.85	87.211	70.93347	0.011466443
2439	140.9	80.408	68.2633	0.012436573
2440	140.95	77.394	65.60355	0.012920898
2441	141	79.462	63.01008	0.012584632


data_KNN05at300K1
_journal_date_recd_electronic     2008-12-13
_journal_date_accepted     2009-03-25
_journal_name_full     'Acta Crystallographica, Section B'
_journal_year     2009
_journal_volume     65
_journal_issue      3
_journal_page_first     291
_journal_page_last     299
_journal_paper_category     FA
_journal_coeditor_code     WF5039
_pd_block_diffractogram_id     KNN05at300K
_chemical_name_systematic     'Sodium Potassium Niobate'
_chemical_formula_sum     'K0.05 Na0.95 Nb1 O3'
_chemical_formula_structural     'K Na (Nb O3)'
_chemical_formula_weight     164.70
_symmetry_cell_setting     monoclinic
_symmetry_space_group_name_H-M     'P 1 m 1'
loop_
    _symmetry_equiv_pos_as_xyz
    'x, -y, z'
    'x, y, z'
_cell_length_a     5.60123(12)
_cell_length_b     7.79834(15)
_cell_length_c     5.54800(14)
_cell_angle_alpha     90
_cell_angle_beta     90.051(4)
_cell_angle_gamma     90
_cell_volume     242.338(11)
_cell_formula_units_Z     4
_pd_char_colour     white
_diffrn_ambient_temperature     300
_diffrn_radiation_type     Neutron
_diffrn_radiation_wavelength     1.60
_diffrn_radiation_monochromator     'Ge [115]'
_diffrn_measurement_device_type     D2B
_pd_meas_2theta_range_min     0.10
_pd_meas_2theta_range_max     160
_pd_meas_2theta_range_inc     0.05
_refine_ls_goodness_of_fit_all     1.73
_refine_ls_number_parameters     57
loop_
    _atom_type_symbol
    Na1+
    K1+
    Nb5+
    O2-
_computing_structure_refinement     'TOPAS Academic'
_pd_proc_ls_prof_R_factor     0.0599
_pd_proc_ls_prof_wR_factor     0.0791
_pd_spec_mount_mode     reflection
_pd_spec_mounting     'Vanadium can packed with powder'
_pd_spec_shape     flat
loop_
    _atom_site_type_symbol
    _atom_site_label
    _atom_site_fract_x
    _atom_site_fract_y
    _atom_site_fract_z
    _atom_site_occupancy
    Na+1 Na1 0.538(2)   0 0.0048(15) 0.95
    K+1 K1 0.538(2)   0 0.0048(15) 0.05
    Na+1 Na2 0.038(2)   0 0.4952(15) 0.95
    K+1 K2 0.038(2)   0 0.4952(15) 0.05
    Na+1 Na3 0.538(2)   0.5 0.0048(15) 0.95
    K+1 K3 0.538(2)   0.5 0.0048(15) 0.05
    Na+1 Na4 0.038(2)   0.5 0.4952(15) 0.95
    K+1 K4 0.038(2)   0.5 0.4952(15) 0.05
    Nb+5 Nb1 0.0322(8)   0.25 0.004(4)   1
    Nb+5 Nb2 0.5322(8)   0.25 0.504(4)   1
    O-2 O1 -0.0033(15) 0 0.0561(8)   1
    O-2 O2 0.5033(15) 0 0.4439(8)   1
    O-2 O7 0.0033(15) 0.5 -0.0561(8)   1
    O-2 O8 0.4967(15) 0.5 0.5561(8)   1
    O-2 O3 0.2839(9)   0.2835(9)   0.2174(9)   1
    O-2 O4 0.2174(9)   0.2311(9)   0.7161(9)   1
    O-2 O5 0.7826(9)   0.2690(9)   0.2839(9)   1
    O-2 O6 0.7161(9)   0.2165(9)   0.7826(9)   1
loop_
    _atom_site_aniso_label
    _atom_site_aniso_U_11
    _atom_site_aniso_U_22
    _atom_site_aniso_U_33
    _atom_site_aniso_U_12
    _atom_site_aniso_U_13
    _atom_site_aniso_U_23
    _atom_site_aniso_type_symbol
    Na1 0.017(3)   0.0173(18) 0.028(3)   0 -0.020(6)   0 Na+1
    K1 0.017(3)   0.0173(18) 0.028(3)   0 -0.020(6)   0 K+1
    Na2 0.017(3)   0.0173(18) 0.028(3)   0 -0.020(6)   0 Na+1
    K2 0.017(3)   0.0173(18) 0.028(3)   0 -0.020(6)   0 K+1
    Na3 0.017(3)   0.0173(18) 0.028(3)   0 -0.020(6)   0 Na+1
    K3 0.017(3)   0.0173(18) 0.028(3)   0 -0.020(6)   0 K+1
    Na4 0.017(3)   0.0173(18) 0.028(3)   0 -0.020(6)   0 Na+1
    K4 0.017(3)   0.0173(18) 0.028(3)   0 -0.020(6)   0 K+1
    Nb1 0.0026(13) 0.0067(10) 0.0048(10)  0.0002(16) -0.002(4)   -0.011(3)
                                                                            Nb+5
    Nb2 0.0026(13) 0.0067(10) 0.0048(10)  0.0002(16) -0.002(4)   -0.011(3)
                                                                            Nb+5
    O1 0.021(2)   0.0027(12) 0.019(2)   0 -0.023(3)   0 O-2
    O2 0.021(2)   0.0027(12) 0.019(2)   0 -0.023(3)   0 O-2
    O7 0.021(2)   0.0027(12) 0.019(2)   0 -0.023(3)   0 O-2
    O8 0.021(2)   0.0027(12) 0.019(2)   0 -0.023(3)   0 O-2
    O3 0.0074(9)   0.0148(13) 0.0076(8)   -0.0036(9)   -0.010(2)   0.007(2)
                                                                             O-2
    O4 0.0074(9)   0.0148(13) 0.0076(8)   -0.0036(9)   -0.010(2)   0.007(2)
                                                                             O-2
    O5 0.0074(9)   0.0148(13) 0.0076(8)   -0.0036(9)   -0.010(2)   0.007(2)
                                                                             O-2
    O6 0.0074(9)   0.0148(13) 0.0076(8)   -0.0036(9)   -0.010(2)   0.007(2)
                                                                             O-2


data_KNN05at300K2
_journal_date_recd_electronic     2008-12-13
_journal_date_accepted     2009-03-25
_journal_name_full     'Acta Crystallographica, Section B'
_journal_year     2009
_journal_volume     65
_journal_issue      3
_journal_page_first     291
_journal_page_last     299
_journal_paper_category     FA
_journal_coeditor_code     WF5039
_pd_block_diffractogram_id     KNN05at300K
_chemical_name_systematic     'Sodium Potassium Niobate'
_chemical_formula_sum     'K0.05 Na0.95 Nb1 O3'
_chemical_formula_structural     'K Na (Nb O3)'
_chemical_formula_weight     164.70
_symmetry_cell_setting     trigonal
_symmetry_space_group_name_H-M     'R 3 c'
loop_
    _symmetry_equiv_pos_as_xyz
    '-x+y, -x, z'
    '-x+y, y, z+1/2'
    '-x+y+1/3, -x-1/3, z-1/3'
    '-x+y+1/3, y-1/3, z+1/6'
    '-x+y-1/3, -x+1/3, z+1/3'
    '-x+y-1/3, y+1/3, z-1/6'
    '-y, -x, z+1/2'
    '-y, x-y, z'
    '-y+1/3, -x-1/3, z+1/6'
    '-y+1/3, x-y-1/3, z-1/3'
    '-y-1/3, -x+1/3, z-1/6'
    '-y-1/3, x-y+1/3, z+1/3'
    'x, y, z'
    'x, x-y, z+1/2'
    'x+1/3, y-1/3, z-1/3'
    'x+1/3, x-y-1/3, z+1/6'
    'x-1/3, y+1/3, z+1/3'
    'x-1/3, x-y+1/3, z-1/6'
_cell_length_a     5.5298(3)
_cell_length_b     5.5298(3)
_cell_length_c     13.7692(11)
_cell_angle_alpha     90
_cell_angle_beta     90
_cell_angle_gamma     120
_cell_volume     364.63(5)
_cell_formula_units_Z     6
_pd_char_colour     white
_diffrn_ambient_temperature     300
_diffrn_radiation_type     Neutron
_diffrn_radiation_wavelength     1.60
_diffrn_radiation_monochromator     'Ge [115]'
_diffrn_measurement_device_type     D2B
_pd_meas_2theta_range_min     0.10
_pd_meas_2theta_range_max     160
_pd_meas_2theta_range_inc     0.05
_refine_ls_goodness_of_fit_all     1.73
_refine_ls_number_parameters     57
loop_
    _atom_type_symbol
    Na1+
    K1+
    Nb5+
    O2-
_computing_structure_refinement     'TOPAS Academic'
_pd_proc_ls_prof_R_factor     0.0599
_pd_proc_ls_prof_wR_factor     0.0791
_pd_spec_mount_mode     reflection
_pd_spec_mounting     'Vanadium can packed with powder'
_pd_spec_shape     flat
loop_
    _atom_site_type_symbol
    _atom_site_label
    _atom_site_fract_x
    _atom_site_fract_y
    _atom_site_fract_z
    _atom_site_occupancy
    Na+1 Na1 0 0 0.3209(10) 0.95
    K+1 K1 0 0 0.3209(10) 0.05
    Nb+5 Nb1 0 0 0.0578(12) 1
    O-2 O1 0.007(3)   0.4425(17) 0.08333 1



# powder data simulated using PLATON:

data_KNN05at300K1_simulated_1.60

_publcif_pd_cifplot 'simulated 2021-03-25'



# powder data simulated using PLATON:

data_KNN05at300K2_simulated_1.60

_publcif_pd_cifplot 'simulated 2021-03-25'

