data_KNN30at180K

_pd_block_id     KNN30at180K
_pd_proc_2theta_range_min  15 
_pd_proc_2theta_range_max 145
_pd_proc_ls_background_function   'Chebychev with six coefficients' 

loop_
      
_pd_data_point_id                           
      
_pd_meas_2theta_corrected     
_pd_meas_intensity_total                     
      
_pd_calc_intensity_total                     
      
_pd_proc_ls_weight
1	15	59.068	60.357	0.01692964
2	15.05	57.255	60.36192	0.017465724
3	15.1	57.278	60.36674	0.01745871
4	15.15	58.464	60.37148	0.017104543
5	15.2	63.155	60.37613	0.015834059
6	15.25	60.375	60.38069	0.016563147
7	15.3	59.357	60.38516	0.016847213
8	15.35	59.158	60.38955	0.016903885
9	15.4	62.404	60.39386	0.016024614
10	15.45	60.853	60.39808	0.016433044
11	15.5	56.846	60.40222	0.017591387
12	15.55	62.606	60.40628	0.01597291
13	15.6	63.077	60.41026	0.015853639
14	15.65	61.123	60.41416	0.016360454
15	15.7	58.42	60.41799	0.017117426
16	15.75	59.604	60.42174	0.016777397
17	15.8	60.89	60.42542	0.016423058
18	15.85	58.003	60.42902	0.017240488
19	15.9	59.472	60.43255	0.016814635
20	15.95	59.754	60.43601	0.016735281
21	16	63.715	60.4394	0.015694891
22	16.05	62.81	60.44273	0.015921032
23	16.1	61.991	60.44599	0.016131374
24	16.15	60.211	60.44918	0.016608261
25	16.2	60.473	60.45231	0.016536305
26	16.25	59.025	60.45538	0.016941974
27	16.3	61.954	60.45839	0.016141008
28	16.35	67.008	60.46135	0.014923591
29	16.4	63.53	60.46424	0.015740595
30	16.45	60.163	60.46708	0.016621512
31	16.5	55.557	60.46987	0.017999532
32	16.55	58.842	60.47261	0.016994664
33	16.6	60.856	60.4753	0.016432233
34	16.65	61.283	60.47794	0.016317739
35	16.7	61.01	60.48053	0.016390756
36	16.75	58.595	60.48309	0.017066303
37	16.8	59.264	60.4856	0.01687365
38	16.85	59.213	60.48807	0.016888183
39	16.9	58.601	60.49051	0.017064555
40	16.95	62.43	60.49291	0.01601794
41	17	63.256	60.49528	0.015808777
42	17.05	62.173	60.49763	0.016084152
43	17.1	58.897	60.49994	0.016978793
44	17.15	59.977	60.50224	0.016673058
45	17.2	58.388	60.50451	0.017126807
46	17.25	55.767	60.50676	0.017931752
47	17.3	61.314	60.509	0.016309489
48	17.35	60.684	60.51123	0.016478808
49	17.4	61.135	60.51345	0.016357242
50	17.45	59.24	60.51566	0.016880486
51	17.5	60.173	60.51787	0.016618749
52	17.55	60.928	60.52008	0.016412815
53	17.6	62.185	60.5223	0.016081048
54	17.65	62.641	60.52453	0.015963985
55	17.7	60.05	60.52677	0.016652789
56	17.75	62.006	60.52903	0.016127472
57	17.8	57.749	60.53131	0.017316317
58	17.85	58.225	60.53361	0.017174753
59	17.9	63.786	60.53595	0.015677421
60	17.95	61.454	60.53833	0.016272334
61	18	60.694	60.54074	0.016476093
62	18.05	60.136	60.54321	0.016628974
63	18.1	59.23	60.54572	0.016883336
64	18.15	57.926	60.5483	0.017263405
65	18.2	61.475	60.55094	0.016266775
66	18.25	61.194	60.55365	0.016341471
67	18.3	59.935	60.55644	0.016684742
68	18.35	58.929	60.55932	0.016969574
69	18.4	57.715	60.56229	0.017326518
70	18.45	55.617	60.56536	0.017980114
71	18.5	59.552	60.56854	0.016792047
72	18.55	57.699	60.57184	0.017331323
73	18.6	61.914	60.57527	0.016151436
74	18.65	63.847	60.57884	0.015662443
75	18.7	60.026	60.58255	0.016659448
76	18.75	58.376	60.58642	0.017130328
77	18.8	62.776	60.59046	0.015929655
78	18.85	62.503	60.59469	0.015999232
79	18.9	55.562	60.59911	0.017997912
80	18.95	60.819	60.60374	0.01644223
81	19	61.197	60.60859	0.01634067
82	19.05	61.08	60.61368	0.016371971
83	19.1	59.984	60.61903	0.016671112
84	19.15	60.206	60.62464	0.01660964
85	19.2	60.694	60.63055	0.016476093
86	19.25	60.927	60.63677	0.016413085
87	19.3	60.729	60.64331	0.016466598
88	19.35	61.325	60.65021	0.016306563
89	19.4	59.442	60.65749	0.016823122
90	19.45	62.409	60.66516	0.01602333
91	19.5	61.732	60.67327	0.016199054
92	19.55	61.952	60.68187	0.016141529
93	19.6	63.027	60.69101	0.015866216
94	19.65	63.73	60.70074	0.015691197
95	19.7	62.328	60.71112	0.016044154
96	19.75	61.637	60.72225	0.016224021
97	19.8	61.802	60.73429	0.016180706
98	19.85	61.102	60.74808	0.016366076
99	19.9	64.687	60.76193	0.015459057
100	19.95	62.486	60.77547	0.016003585
101	20	57.963	60.78984	0.017252385
102	20.05	63.496	60.8051	0.015749024
103	20.1	63.099	60.82132	0.015848112
104	20.15	61.792	60.83856	0.016183325
105	20.2	58.146	60.8569	0.017198088
106	20.25	61.996	60.87642	0.016130073
107	20.3	59.619	60.89721	0.016773176
108	20.35	61.355	60.91936	0.01629859
109	20.4	57.546	60.943	0.017377402
110	20.45	57.054	60.96823	0.017527255
111	20.5	58.21	60.99517	0.017179179
112	20.55	61.326	61.02398	0.016306297
113	20.6	60.385	61.05481	0.016560404
114	20.65	61.572	61.08782	0.016241149
115	20.7	59.259	61.12321	0.016875074
116	20.75	58.594	61.16119	0.017066594
117	20.8	59.749	61.20198	0.016736682
118	20.85	58.366	61.24584	0.017133263
119	20.9	60.607	61.29306	0.016499744
120	20.95	61.521	61.34397	0.016254612
121	21	60.118	61.39891	0.016633953
122	21.05	63.998	61.45829	0.015625488
123	21.1	60.36	61.52258	0.016567263
124	21.15	61.073	61.59236	0.016373848
125	21.2	59.295	61.66824	0.016864828
126	21.25	60.619	61.75092	0.016496478
127	21.3	56.902	61.84122	0.017574075
128	21.35	59.94	61.94016	0.01668335
129	21.4	61.244	62.04917	0.01632813
130	21.45	64.562	62.17124	0.015488987
131	21.5	56.924	62.30067	0.017567283
132	21.55	61.106	62.44359	0.016365005
133	21.6	63.639	62.60187	0.015713635
134	21.65	61.691	62.77779	0.01620982
135	21.7	62.372	62.97413	0.016032835
136	21.75	65.955	63.19458	0.015161853
137	21.8	65.552	63.44505	0.015255065
138	21.85	71.215	63.73226	0.014041986
139	21.9	72.227	64.05318	0.013845238
140	21.95	76.811	64.43144	0.013018969
141	22	79.754	64.89238	0.012538556
142	22.05	76.041	65.47934	0.0131508
143	22.1	82.395	66.26485	0.012136659
144	22.15	86.941	67.36589	0.011502053
145	22.2	87.345	68.96229	0.011448852
146	22.25	88.531	71.31599	0.011295478
147	22.3	96.036	74.78807	0.010412762
148	22.35	95.014	79.8499	0.010524765
149	22.4	97.806	87.08684	0.010224322
150	22.45	113.835	97.19568	0.008784644
151	22.5	120.392	110.98074	0.0083062
152	22.55	124.939	129.35588	0.008003906
153	22.6	144.414	153.35824	0.006924536
154	22.65	159.723	184.16712	0.006260839
155	22.7	180.703	223.09069	0.005533942
156	22.75	206.84	271.44995	0.004834655
157	22.8	242.43	330.2811	0.004124902
158	22.85	295.424	399.81532	0.003384965
159	22.9	362.591	478.78374	0.002757928
160	22.95	450.3	563.72189	0.002220742
161	23	519.452	648.55926	0.001925106
162	23.05	640.201	724.80037	0.001562009
163	23.1	749.169	782.48838	0.001334812
164	23.15	837.204	811.94877	0.001194452
165	23.2	875	806.16329	0.001142857
166	23.25	863.414	763.36553	0.001158193
167	23.3	774.735	688.60956	0.001290764
168	23.35	664.772	592.63353	0.001504275
169	23.4	552.346	488.3727	0.001810459
170	23.45	440.942	387.52833	0.002267872
171	23.5	366.87	298.58776	0.002725761
172	23.55	289.381	226.1747	0.003455652
173	23.6	238.813	171.34881	0.004187377
174	23.65	188.215	132.532	0.005313073
175	23.7	149.446	106.6863	0.00669138
176	23.75	129.755	90.38101	0.007706832
177	23.8	109.836	80.52415	0.009104483
178	23.85	96.343	74.7118	0.010379581
179	23.9	85.486	71.2775	0.011697822
180	23.95	79.114	69.17191	0.012639988
181	24	68.09	67.78674	0.014686444
182	24.05	64.03	66.79307	0.015617679
183	24.1	61.575	66.0221	0.016240357
184	24.15	66.609	65.38937	0.015012986
185	24.2	64.005	64.85191	0.015623779
186	24.25	63.933	64.38628	0.015641375
187	24.3	63.345	63.97813	0.015786566
188	24.35	60.768	63.61756	0.016456029
189	24.4	56.393	63.29711	0.017732697
190	24.45	59.218	63.01088	0.016886757
191	24.5	59.127	62.75401	0.016912747
192	24.55	61.29	62.52253	0.016315875
193	24.6	62.157	62.31308	0.016088293
194	24.65	59.088	62.12285	0.01692391
195	24.7	61.11	61.94946	0.016363934
196	24.75	59.435	61.79089	0.016825103
197	24.8	56.06	61.6454	0.017838031
198	24.85	56.751	61.51151	0.017620835
199	24.9	66.828	61.38793	0.014963788
200	24.95	68.082	61.27357	0.01468817
201	25	57.561	61.16744	0.017372874
202	25.05	56.233	61.06871	0.017783152
203	25.1	58.889	60.97664	0.0169811
204	25.15	61.671	60.89058	0.016215077
205	25.2	58.174	60.80996	0.01718981
206	25.25	56.051	60.73427	0.017840895
207	25.3	58.95	60.66307	0.016963528
208	25.35	59.333	60.59595	0.016854027
209	25.4	57.536	60.53257	0.017380423
210	25.45	57.55	60.4726	0.017376195
211	25.5	58.948	60.41576	0.016964104
212	25.55	58.854	60.36179	0.016991199
213	25.6	57.832	60.31047	0.017291465
214	25.65	58.678	60.26158	0.017042162
215	25.7	57.306	60.21494	0.01745018
216	25.75	60.195	60.17038	0.016612675
217	25.8	65.686	60.12775	0.015223944
218	25.85	57.897	60.0869	0.017272052
219	25.9	61.799	60.04771	0.016181492
220	25.95	59.28	60.01007	0.016869096
221	26	59.999	59.97386	0.016666944
222	26.05	57.999	59.93899	0.017241677
223	26.1	60.896	59.90537	0.01642144
224	26.15	59.048	59.87291	0.016935375
225	26.2	55.843	59.84156	0.017907347
226	26.25	60.157	59.81123	0.016623169
227	26.3	63.541	59.78186	0.01573787
228	26.35	58.436	59.7534	0.017112739
229	26.4	53.985	59.72578	0.018523664
230	26.45	62.275	59.69897	0.016057808
231	26.5	59.272	59.67292	0.016871373
232	26.55	58.505	59.64757	0.017092556
233	26.6	52.459	59.6229	0.019062506
234	26.65	55.722	59.59887	0.017946233
235	26.7	59.511	59.57544	0.016803616
236	26.75	62.576	59.55258	0.015980568
237	26.8	61.568	59.53027	0.016242204
238	26.85	60.834	59.50847	0.016438176
239	26.9	59.479	59.48716	0.016812657
240	26.95	61.902	59.46632	0.016154567
241	27	58.818	59.44592	0.017001598
242	27.05	64.966	59.42595	0.015392667
243	27.1	56.901	59.40638	0.017574384
244	27.15	62.232	59.38721	0.016068903
245	27.2	59.957	59.3684	0.01667862
246	27.25	57.706	59.34996	0.017329221
247	27.3	61.148	59.33186	0.016353765
248	27.35	57.212	59.31409	0.017478851
249	27.4	58.677	59.29663	0.017042453
250	27.45	57.344	59.27949	0.017438616
251	27.5	61.333	59.26264	0.016304436
252	27.55	57.082	59.24607	0.017518657
253	27.6	60.549	59.22979	0.016515549
254	27.65	58.771	59.21377	0.017015195
255	27.7	57.871	59.19802	0.017279812
256	27.75	56.952	59.18252	0.017558646
257	27.8	61.812	59.16727	0.016178088
258	27.85	60.536	59.15227	0.016519096
259	27.9	60.992	59.1375	0.016395593
260	27.95	63.148	59.12297	0.015835814
261	28	62.416	59.10866	0.016021533
262	28.05	59.458	59.09459	0.016818595
263	28.1	58.187	59.08073	0.017185969
264	28.15	57.707	59.06709	0.01732892
265	28.2	59.905	59.05368	0.016693097
266	28.25	58.9	59.04048	0.016977929
267	28.3	58.429	59.02749	0.017114789
268	28.35	61.144	59.01472	0.016354834
269	28.4	55.949	59.00216	0.01787342
270	28.45	54.258	58.99038	0.018430462
271	28.5	55.369	58.98046	0.018060648
272	28.55	59.148	58.97317	0.016906742
273	28.6	61.976	58.97004	0.016135278
274	28.65	60.154	58.9758	0.016623998
275	28.7	57.41	59.01159	0.017418568
276	28.75	58.849	59.00098	0.016992642
277	28.8	56.804	58.99061	0.017604394
278	28.85	57.714	58.98047	0.017326818
279	28.9	59.989	58.97057	0.016669723
280	28.95	60.184	58.96092	0.016615712
281	29	55.713	58.95152	0.017949132
282	29.05	60.366	58.94237	0.016565616
283	29.1	60.319	58.93349	0.016578524
284	29.15	64.517	58.92488	0.015499791
285	29.2	54.513	58.91655	0.018344248
286	29.25	59.617	58.90851	0.016773739
287	29.3	59.367	58.90077	0.016844375
288	29.35	55.941	58.89335	0.017875976
289	29.4	55.731	58.88624	0.017943335
290	29.45	60.112	58.87948	0.016635614
291	29.5	55.651	58.87306	0.017969129
292	29.55	56.948	58.86701	0.017559879
293	29.6	55.881	58.86134	0.01789517
294	29.65	57.097	58.85607	0.017514055
295	29.7	55.61	58.85123	0.017982377
296	29.75	56.079	58.84682	0.017831987
297	29.8	59.309	58.84288	0.016860847
298	29.85	58.5	58.83944	0.017094017
299	29.9	61.48	58.83651	0.016265452
300	29.95	58.394	58.83412	0.017125047
301	30	61.393	58.83232	0.016288502
302	30.05	58.846	58.83113	0.016993508
303	30.1	59.582	58.8306	0.016783592
304	30.15	59.763	58.83076	0.016732761
305	30.2	59.033	58.83166	0.016939678
306	30.25	56.565	58.83335	0.017678777
307	30.3	53.393	58.83589	0.018729047
308	30.35	57.147	58.83933	0.017498731
309	30.4	57.109	58.84375	0.017510375
310	30.45	57.777	58.84921	0.017307925
311	30.5	54.796	58.85579	0.018249507
312	30.55	53.567	58.86358	0.01866821
313	30.6	54.736	58.87269	0.018269512
314	30.65	59.225	58.88321	0.016884762
315	30.7	55.798	58.89527	0.017921789
316	30.75	57.944	58.909	0.017258042
317	30.8	54.05	58.92455	0.018501388
318	30.85	58.813	58.94209	0.017003044
319	30.9	60.701	58.96179	0.016474193
320	30.95	59.452	58.98388	0.016820292
321	31	59.352	59.00859	0.016848632
322	31.05	56.106	59.03617	0.017823406
323	31.1	57.191	59.06695	0.017485269
324	31.15	61.152	59.10124	0.016352695
325	31.2	58.807	59.13946	0.017004778
326	31.25	56.713	59.18205	0.017632642
327	31.3	55.899	59.22951	0.017889408
328	31.35	57.7	59.28245	0.017331023
329	31.4	57.085	59.34154	0.017517737
330	31.45	58.081	59.4076	0.017217334
331	31.5	58.781	59.48156	0.0170123
332	31.55	58.62	59.56451	0.017059024
333	31.6	61.435	59.65775	0.016277366
334	31.65	60.258	59.76284	0.016595307
335	31.7	60.461	59.88165	0.016539588
336	31.75	60.535	60.01645	0.016519369
337	31.8	61.633	60.17016	0.016225074
338	31.85	61.515	60.3466	0.016256198
339	31.9	59.789	60.55121	0.016725485
340	31.95	59.49	60.79227	0.016809548
341	32	57.871	61.08328	0.017279812
342	32.05	59.512	61.447	0.016803334
343	32.1	63.147	61.92223	0.015836065
344	32.15	65.974	62.57412	0.015157486
345	32.2	63.465	63.50878	0.015756716
346	32.25	65.56	64.89245	0.015253203
347	32.3	68.891	66.97443	0.014515684
348	32.35	70.937	70.11115	0.014097016
349	32.4	72.852	74.78599	0.013726459
350	32.45	76.969	81.6142	0.012992244
351	32.5	85.197	91.3166	0.011737502
352	32.55	92.196	104.64248	0.010846458
353	32.6	101.733	122.22858	0.009829652
354	32.65	122.714	144.3986	0.008149029
355	32.7	150.214	170.9303	0.006657169
356	32.75	171.75	200.84325	0.005822416
357	32.8	202.426	232.28116	0.004940077
358	32.85	241.934	262.56057	0.004133359
359	32.9	270.142	288.43785	0.003701757
360	32.95	303.295	306.6527	0.00329712
361	33	324.603	314.7761	0.003080686
362	33.05	332.321	312.02643	0.003009139
363	33.1	319.216	299.30484	0.003132675
364	33.15	306.901	278.41768	0.00325838
365	33.2	260.916	251.4757	0.003832651
366	33.25	233.413	220.91102	0.004284252
367	33.3	192.064	189.49541	0.005206598
368	33.35	155.252	159.85884	0.006441141
369	33.4	130.694	133.90746	0.007651461
370	33.45	110.34	112.62305	0.009062897
371	33.5	89.54	96.18014	0.011168193
372	33.55	78.714	84.17147	0.01270422
373	33.6	69.725	75.84876	0.014342058
374	33.65	69.237	70.3415	0.014443145
375	33.7	64.426	66.82267	0.015521684
376	33.75	62.224	64.61601	0.016070969
377	33.8	59.68	63.22326	0.016756032
378	33.85	61.895	62.31198	0.016156394
379	33.9	59.414	61.67822	0.01683105
380	33.95	57.01	61.20533	0.017540782
381	34	61.527	60.82995	0.016253027
382	34.05	59.639	60.51844	0.016767551
383	34.1	55.195	60.25258	0.018117583
384	34.15	59.801	60.02183	0.016722128
385	34.2	60.791	59.81944	0.016449803
386	34.25	60.481	59.64061	0.016534118
387	34.3	59.48	59.48169	0.016812374
388	34.35	57.049	59.33976	0.017528791
389	34.4	54.219	59.21245	0.018443719
390	34.45	52.385	59.09779	0.019089434
391	34.5	58.01	58.99414	0.017238407
392	34.55	53.244	58.90013	0.018781459
393	34.6	57.885	58.81464	0.017275633
394	34.65	53.726	58.73712	0.018612962
395	34.7	60.392	58.66706	0.016558485
396	34.75	56.2	58.60449	0.017793594
397	34.8	56.2	58.55363	0.017793594
398	34.85	58.965	58.50248	0.016959213
399	34.9	53.745	58.45148	0.018606382
400	34.95	57.018	58.40476	0.017538321
401	35	62.292	58.36231	0.016053426
402	35.05	56.851	58.32441	0.01758984
403	35.1	60.771	58.29433	0.016455217
404	35.15	60.917	58.26509	0.016415779
405	35.2	56.754	58.23303	0.017619903
406	35.25	57.23	58.2033	0.017473353
407	35.3	58.792	58.17574	0.017009117
408	35.35	59.778	58.15022	0.016728562
409	35.4	59.873	58.12661	0.016702019
410	35.45	60.112	58.10479	0.016635614
411	35.5	55.358	58.08467	0.018064236
412	35.55	54.126	58.06616	0.018475409
413	35.6	55.004	58.0492	0.018180496
414	35.65	54.337	58.03371	0.018403666
415	35.7	58.491	58.01964	0.017096647
416	35.75	63.268	58.00694	0.015805779
417	35.8	56.697	57.99558	0.017637618
418	35.85	58.99	57.98552	0.016952026
419	35.9	60.837	57.97673	0.016437365
420	35.95	61.122	57.9692	0.016360721
421	36	60.989	57.96291	0.016396399
422	36.05	57.873	57.95785	0.017279215
423	36.1	55.813	57.95402	0.017916973
424	36.15	58.913	57.95142	0.016974182
425	36.2	61.224	57.95007	0.016333464
426	36.25	59.811	57.94997	0.016719333
427	36.3	59.245	57.95115	0.016879062
428	36.35	63.029	57.95363	0.015865713
429	36.4	61.006	57.95744	0.01639183
430	36.45	59.586	57.96262	0.016782466
431	36.5	59.637	57.96921	0.016768114
432	36.55	60.822	57.97727	0.016441419
433	36.6	63.329	57.98685	0.015790554
434	36.65	63.092	57.99802	0.01584987
435	36.7	67.836	58.01086	0.014741435
436	36.75	64.649	58.02544	0.015468143
437	36.8	68.497	58.04188	0.01459918
438	36.85	72.754	58.06027	0.013744949
439	36.9	71.702	58.08074	0.013946612
440	36.95	75.52	58.10342	0.013241525
441	37	77.655	58.12847	0.012877471
442	37.05	73.393	58.15606	0.013625278
443	37.1	69.3	58.18639	0.014430014
444	37.15	67.987	58.21967	0.014708694
445	37.2	67.339	58.25615	0.014850235
446	37.25	65.94	58.29612	0.015165302
447	37.3	66.162	58.33989	0.015114416
448	37.35	60.087	58.38783	0.016642535
449	37.4	60.163	58.44036	0.016621512
450	37.45	57.394	58.49797	0.017423424
451	37.5	64.897	58.5612	0.015409033
452	37.55	60.398	58.6307	0.01655684
453	37.6	56.899	58.70722	0.017575001
454	37.65	59.233	58.79165	0.016882481
455	37.7	62.76	58.88502	0.015933716
456	37.75	59.847	58.98857	0.016709275
457	37.8	62.275	59.10377	0.016057808
458	37.85	57.918	59.2324	0.01726579
459	37.9	61.717	59.37666	0.016202991
460	37.95	61.69	59.53932	0.016210083
461	38	65.044	59.72404	0.015374208
462	38.05	63.645	59.93602	0.015712153
463	38.1	64.819	60.18323	0.015427575
464	38.15	60.674	60.47889	0.016481524
465	38.2	58.106	60.84601	0.017209927
466	38.25	60.826	61.32524	0.016440338
467	38.3	58.697	61.98747	0.017036646
468	38.35	64.402	62.95205	0.015527468
469	38.4	65.729	64.41034	0.015213985
470	38.45	62.096	66.65117	0.016104097
471	38.5	69.205	70.07978	0.014449823
472	38.55	72.403	75.21549	0.013811582
473	38.6	80.775	82.64676	0.012380068
474	38.65	78.4	92.92175	0.012755102
475	38.7	91.02	106.36514	0.010986596
476	38.75	100.874	122.84544	0.009913357
477	38.8	118.239	141.55929	0.008457446
478	38.85	139.948	160.9201	0.007145511
479	38.9	168.844	178.62228	0.005922627
480	38.95	197.047	191.92228	0.005074931
481	39	207.348	198.18167	0.00482281
482	39.05	209.889	195.73057	0.004764423
483	39.1	198.35	184.80403	0.005041593
484	39.15	177.507	167.68513	0.005633581
485	39.2	147.655	147.65752	0.006772544
486	39.25	117.288	127.74976	0.008526021
487	39.3	103.665	110.10506	0.009646457
488	39.35	96.338	95.86732	0.01038012
489	39.4	83.59	85.31091	0.011963153
490	39.45	80.559	78.09387	0.012413262
491	39.5	74.868	73.55302	0.013356841
492	39.55	71.105	70.9594	0.014063709
493	39.6	70.906	69.68383	0.014103179
494	39.65	71.115	69.26821	0.014061731
495	39.7	70.969	69.43039	0.014090659
496	39.75	72.632	70.03989	0.013768036
497	39.8	76.482	71.09446	0.013074972
498	39.85	80.612	72.71481	0.012405101
499	39.9	82.124	75.16303	0.012176708
500	39.95	81.589	78.88093	0.012256554
501	40	83.77	84.53551	0.011937448
502	40.05	89.146	93.04866	0.011217553
503	40.1	96.09	105.57686	0.01040691
504	40.15	108.538	123.402	0.009213363
505	40.2	123.883	147.70614	0.008072133
506	40.25	141.346	179.24718	0.007074838
507	40.3	180.543	218.02587	0.005538847
508	40.35	214.936	263.08831	0.004652548
509	40.4	270.442	312.57981	0.003697651
510	40.45	335.213	364.04868	0.002983178
511	40.5	407.603	415.02167	0.002453368
512	40.55	474.432	463.82834	0.002107784
513	40.6	515.79	510.56142	0.001938774
514	40.65	563.718	556.95205	0.001773937
515	40.7	623.572	604.09576	0.001603664
516	40.75	694.082	649.65588	0.001440752
517	40.8	776	686.89889	0.00128866
518	40.85	823.663	705.94437	0.001214089
519	40.9	847.991	696.94867	0.001179258
520	40.95	805.843	654.98321	0.001240937
521	41	657.185	583.94704	0.001521642
522	41.05	498.927	495.26855	0.002004301
523	41.1	362.579	402.32837	0.00275802
524	41.15	260.365	315.98247	0.003840762
525	41.2	193.066	242.99619	0.005179576
526	41.25	152.345	186.11656	0.006564049
527	41.3	118.525	144.89004	0.008437039
528	41.35	95.056	116.85556	0.010520114
529	41.4	81.342	98.75841	0.012293772
530	41.45	78.617	87.47236	0.012719895
531	41.5	74.728	80.4972	0.013381865
532	41.55	68.706	76.08396	0.01455477
533	41.6	63.302	73.13371	0.015797289
534	41.65	64.573	71.01338	0.015486349
535	41.7	65.097	69.38103	0.015361691
536	41.75	66.136	68.05802	0.015120358
537	41.8	62.669	66.94997	0.015956853
538	41.85	63.582	66.00367	0.015727722
539	41.9	62.016	65.18584	0.016124871
540	41.95	60.855	64.47334	0.016432503
541	42	58.02	63.84878	0.017235436
542	42.05	61.54	63.29848	0.016249594
543	42.1	63.017	62.8114	0.015868734
544	42.15	62.285	62.37852	0.01605523
545	42.2	63.779	61.9924	0.015679142
546	42.25	60.934	61.64685	0.016411199
547	42.3	57.774	61.33668	0.017308824
548	42.35	57.219	61.05753	0.017476712
549	42.4	60.023	60.80572	0.01666028
550	42.45	61.153	60.5781	0.016352428
551	42.5	60.098	60.37199	0.016639489
552	42.55	63.462	60.18506	0.015757461
553	42.6	59.982	60.01531	0.016671668
554	42.65	60.261	59.86103	0.016594481
555	42.7	59.933	59.72072	0.016685299
556	42.75	59.026	59.59308	0.016941687
557	42.8	59.046	59.47697	0.016935948
558	42.85	57.874	59.37139	0.017278916
559	42.9	61.55	59.27544	0.016246954
560	42.95	59.911	59.18834	0.016691426
561	43	59.4	59.10935	0.016835017
562	43.05	61.75	59.03781	0.016194332
563	43.1	60.993	58.97298	0.016395324
564	43.15	61.256	58.91373	0.016324931
565	43.2	57.563	58.85818	0.01737227
566	43.25	58.999	58.81429	0.01694944
567	43.3	59.282	58.77609	0.016868527
568	43.35	60.824	58.74333	0.016440879
569	43.4	62.891	58.71577	0.015900526
570	43.45	61.914	58.69321	0.016151436
571	43.5	59.966	58.67548	0.016676116
572	43.55	61.573	58.66243	0.016240885
573	43.6	60.009	58.65395	0.016664167
574	43.65	62.768	58.64993	0.015931685
575	43.7	64.996	58.65031	0.015385562
576	43.75	68.956	58.65503	0.014502001
577	43.8	68.344	58.66406	0.014631862
578	43.85	68.789	58.67738	0.014537208
579	43.9	71.477	58.69501	0.013990514
580	43.95	66.81	58.71696	0.014967819
581	44	76.159	58.74328	0.013130425
582	44.05	76.027	58.77403	0.013153222
583	44.1	85.57	58.8093	0.011686339
584	44.15	86.341	58.84917	0.011581983
585	44.2	86.429	58.89378	0.011570191
586	44.25	86.918	58.94326	0.011505097
587	44.3	79.563	58.99777	0.012568656
588	44.35	77.533	59.05751	0.012897734
589	44.4	68.78	59.12267	0.01453911
590	44.45	72.504	59.19349	0.013792342
591	44.5	67.271	59.27024	0.014865247
592	44.55	67.679	59.35321	0.014775632
593	44.6	64.351	59.44272	0.015539774
594	44.65	57.805	59.53914	0.017299542
595	44.7	60.434	59.64286	0.016546977
596	44.75	65.662	59.75432	0.015229509
597	44.8	63.848	59.87417	0.015662198
598	44.85	64.097	60.00319	0.015601354
599	44.9	59.702	60.14354	0.016749858
600	44.95	61.231	60.29142	0.016331597
601	45	60.165	60.45005	0.016620959
602	45.05	60.479	60.62026	0.016534665
603	45.1	61.921	60.80292	0.01614961
604	45.15	64.511	60.99905	0.015501232
605	45.2	61.397	61.20976	0.016287441
606	45.25	61.922	61.43627	0.016149349
607	45.3	61.205	61.67998	0.016338534
608	45.35	63.832	61.94243	0.015666124
609	45.4	67.435	62.22536	0.014829095
610	45.45	70.719	62.53071	0.014140471
611	45.5	62.71	62.86069	0.01594642
612	45.55	63.528	63.21777	0.015741091
613	45.6	61.638	63.60477	0.016223758
614	45.65	63.251	64.02489	0.015810027
615	45.7	63.698	64.48176	0.01569908
616	45.75	58.017	64.97954	0.017236327
617	45.8	63.135	65.52303	0.015839075
618	45.85	65.606	66.11772	0.015242508
619	45.9	65.309	66.76998	0.015311825
620	45.95	66.733	67.48721	0.01498509
621	46	69.502	68.27801	0.014388075
622	46.05	68.427	69.15251	0.014614114
623	46.1	71.739	70.12258	0.013939419
624	46.15	72.332	71.20232	0.01382514
625	46.2	82.293	72.4085	0.012151702
626	46.25	84.684	73.76119	0.011808606
627	46.3	83.142	75.2846	0.012027615
628	46.35	88.551	77.00816	0.011292927
629	46.4	87.686	78.96789	0.011404329
630	46.45	86.449	81.20855	0.011567514
631	46.5	91.79	83.78682	0.010894433
632	46.55	94.192	86.777	0.010616613
633	46.6	90.244	90.28222	0.011081069
634	46.65	100.204	94.45744	0.009979642
635	46.7	111.177	99.55698	0.008994666
636	46.75	115.465	106.02849	0.008660633
637	46.8	130.624	114.68621	0.007655561
638	46.85	152.804	127.00152	0.006544331
639	46.9	182.684	145.53434	0.005473933
640	46.95	234.95	174.47361	0.004256225
641	47	294.719	220.14119	0.003393063
642	47.05	399.278	291.1509	0.002504521
643	47.1	511.956	397.76299	0.001953293
644	47.15	671.416	549.95637	0.00148939
645	47.2	847.754	753.99418	0.001179587
646	47.25	1075.414	1007.86611	0.000929874
647	47.3	1340.728	1296.87935	0.000745863
648	47.35	1590.958	1591.34791	0.000628552
649	47.4	1818.655	1848.07385	0.000549857
650	47.45	1975.63	2016.87676	0.000506168
651	47.5	1964.285	2054.53165	0.000509091
652	47.55	1802.843	1945.96134	0.000554679
653	47.6	1490.309	1717.38796	0.000671002
654	47.65	1163.961	1422.6782	0.000859135
655	47.7	891.415	1116.28208	0.001121812
656	47.75	697.267	837.5892	0.001434171
657	47.8	575.795	608.24014	0.001736729
658	47.85	496.273	434.68694	0.00201502
659	47.9	445.128	312.58979	0.002246545
660	47.95	376.855	231.79993	0.00265354
661	48	319.817	180.71362	0.003126788
662	48.05	250.753	149.12026	0.003987988
663	48.1	186.738	129.40907	0.005355096
664	48.15	152.905	116.57631	0.006540009
665	48.2	126.2	107.64497	0.00792393
666	48.25	100.234	100.97334	0.009976655
667	48.3	86.651	95.69629	0.011540548
668	48.35	78.324	91.35894	0.012767479
669	48.4	72.173	87.70949	0.013855597
670	48.45	71.134	84.59448	0.014057975
671	48.5	66.171	81.90993	0.01511236
672	48.55	69.348	79.57933	0.014420027
673	48.6	64.996	77.54353	0.015385562
674	48.65	63.803	75.75546	0.015673244
675	48.7	65.526	74.17715	0.015261118
676	48.75	65.37	72.77759	0.015297537
677	48.8	61.845	71.53128	0.016169456
678	48.85	62.478	70.41711	0.016005634
679	48.9	62.263	69.41748	0.016060903
680	48.95	59.465	68.51761	0.016816615
681	49	62.599	67.70506	0.015974696
682	49.05	60.234	66.96926	0.016601919
683	49.1	59.15	66.30122	0.016906171
684	49.15	58.283	65.69324	0.017157662
685	49.2	59.597	65.13869	0.016779368
686	49.25	59.024	64.63187	0.016942261
687	49.3	59.7	64.16783	0.016750419
688	49.35	58.896	63.74226	0.016979082
689	49.4	56.023	63.35141	0.017849812
690	49.45	59.13	62.99199	0.016911889
691	49.5	55.229	62.66114	0.01810643
692	49.55	56.472	62.35631	0.017707891
693	49.6	59.607	62.07527	0.016776553
694	49.65	60.776	61.81606	0.016453863
695	49.7	59.206	61.57694	0.01689018
696	49.75	59.324	61.35636	0.016856584
697	49.8	57.278	61.15297	0.01745871
698	49.85	58.543	60.96554	0.017081461
699	49.9	60.901	60.79303	0.016420092
700	49.95	54.813	60.63447	0.018243847
701	50	60.716	60.48904	0.016470123
702	50.05	60.293	60.35601	0.016585673
703	50.1	58.085	60.23473	0.017216149
704	50.15	57.326	60.12466	0.017444092
705	50.2	56.017	60.02531	0.017851724
706	50.25	56.411	59.93629	0.017727039
707	50.3	57.114	59.85726	0.017508842
708	50.35	54.247	59.78797	0.018434199
709	50.4	63.392	59.72822	0.015774861
710	50.45	59.238	59.67787	0.016881056
711	50.5	56.154	59.63687	0.01780817
712	50.55	60.548	59.60521	0.016515822
713	50.6	61.158	59.58298	0.016351091
714	50.65	60.895	59.57032	0.016421709
715	50.7	60.085	59.56747	0.016643089
716	50.75	59.302	59.57477	0.016862838
717	50.8	54.841	59.59262	0.018234533
718	50.85	57.576	59.6216	0.017368348
719	50.9	59.21	59.66236	0.016889039
720	50.95	60.138	59.71576	0.016628421
721	51	58.696	59.78281	0.017036936
722	51.05	58.797	59.86505	0.01700767
723	51.1	58.373	59.97	0.017131208
724	51.15	59.913	60.1254	0.016690868
725	51.2	58.449	60.27898	0.017108933
726	51.25	61.602	60.44013	0.016233239
727	51.3	56.876	60.62836	0.017582108
728	51.35	55.619	60.84843	0.017979467
729	51.4	56.636	61.10694	0.017656614
730	51.45	59.571	61.41386	0.016786692
731	51.5	61.891	61.78569	0.016157438
732	51.55	58.831	62.25167	0.016997841
733	51.6	57.322	62.86972	0.017445309
734	51.65	59.526	63.75377	0.016799382
735	51.7	60.857	65.03577	0.016431963
736	51.75	62.399	66.93911	0.016025898
737	51.8	62.665	69.8427	0.015957871
738	51.85	63.789	74.18024	0.015676684
739	51.9	70.209	80.39212	0.014243188
740	51.95	75.758	88.78165	0.013199926
741	52	90.327	99.31603	0.011070887
742	52.05	101.027	111.41926	0.009898344
743	52.1	117.059	123.83711	0.008542701
744	52.15	134.101	134.66708	0.007457066
745	52.2	150.456	141.66046	0.006646461
746	52.25	152.059	142.9611	0.006576395
747	52.3	144.111	138.18374	0.006939096
748	52.35	135.714	128.84922	0.007368437
749	52.4	119.352	117.45138	0.008378578
750	52.45	105.377	106.22414	0.009489737
751	52.5	92.453	96.63429	0.010816307
752	52.55	82.734	89.40416	0.012086929
753	52.6	80.783	84.67805	0.012378842
754	52.65	77.717	82.2573	0.012867198
755	52.7	77.967	81.84006	0.012825939
756	52.75	85.219	83.24619	0.011734472
757	52.8	86.208	86.59778	0.011599852
758	52.85	98.24	92.48025	0.010179153
759	52.9	101.852	102.06502	0.009818168
760	52.95	126.849	117.16104	0.007883389
761	53	147.511	140.10546	0.006779155
762	53.05	179.727	173.3891	0.005563994
763	53.1	234.049	218.96451	0.00427261
764	53.15	293.34	277.30505	0.003409013
765	53.2	374.648	346.43198	0.002669172
766	53.25	462.756	421.25343	0.002160966
767	53.3	546.945	493.62199	0.001828337
768	53.35	616.611	553.67372	0.001621768
769	53.4	654.611	593.35636	0.001527625
770	53.45	662.643	611.25233	0.001509108
771	53.5	623.021	613.08246	0.001605082
772	53.55	586.661	605.40476	0.001704562
773	53.6	571.999	589.67115	0.001748255
774	53.65	546.853	561.90413	0.001828645
775	53.7	520.64	517.1631	0.001920713
776	53.75	473.405	455.67639	0.002112356
777	53.8	399.378	384.58351	0.002503894
778	53.85	319.219	313.39386	0.003132646
779	53.9	261.794	249.43457	0.003819797
780	53.95	207.417	196.6774	0.004821206
781	54	160.133	156.23801	0.006244809
782	54.05	125.71	127.1848	0.007954817
783	54.1	102.367	107.41104	0.009768773
784	54.15	90.549	94.45157	0.011043744
785	54.2	81.855	86.07512	0.012216725
786	54.25	74.626	80.57306	0.013400155
787	54.3	64.7	76.79354	0.015455951
788	54.35	62.894	74.03421	0.015899768
789	54.4	61.558	71.89706	0.016244842
790	54.45	61.401	70.16508	0.01628638
791	54.5	61.814	68.71891	0.016177565
792	54.55	54.73	67.48885	0.018271515
793	54.6	56.908	66.43013	0.017572222
794	54.65	59.493	65.51121	0.0168087
795	54.7	58.074	64.70831	0.01721941
796	54.75	57.426	64.00296	0.017413715
797	54.8	59.656	63.38153	0.016762773
798	54.85	58.923	62.83021	0.016971302
799	54.9	60.488	62.33771	0.016532205
800	54.95	53.611	61.89727	0.018652888
801	55	58.984	61.50222	0.01695375
802	55.05	62.401	61.14828	0.016025384
803	55.1	60.067	60.82812	0.016648076
804	55.15	52.707	60.53743	0.018972812
805	55.2	55.745	60.27375	0.017938829
806	55.25	56.144	60.03408	0.017811342
807	55.3	57.387	59.81586	0.017425549
808	55.35	58.715	59.61686	0.017031423
809	55.4	58.363	59.43624	0.017134143
810	55.45	58.016	59.28092	0.017236624
811	55.5	57.28	59.12931	0.017458101
812	55.55	56.382	58.99044	0.017736157
813	55.6	55.038	58.86339	0.018169265
814	55.65	55.531	58.74717	0.01800796
815	55.7	59.684	58.64094	0.016754909
816	55.75	58.834	58.54394	0.016996975
817	55.8	58.034	58.45551	0.017231278
818	55.85	58.237	58.37568	0.017171214
819	55.9	57.223	58.30893	0.017475491
820	55.95	55.945	58.24338	0.017874698
821	56	55.195	58.18414	0.018117583
822	56.05	56.138	58.13121	0.017813246
823	56.1	56.504	58.0843	0.017697862
824	56.15	56.759	58.04315	0.017618351
825	56.2	55.146	58.00757	0.018133682
826	56.25	57.191	57.97737	0.017485269
827	56.3	55.099	57.95248	0.01814915
828	56.35	57.411	57.93489	0.017418265
829	56.4	58.249	57.92932	0.017167677
830	56.45	57.141	57.91972	0.017500569
831	56.5	58.509	57.91516	0.017091388
832	56.55	57.983	57.91595	0.017246434
833	56.6	56.185	57.92708	0.017798345
834	56.65	54.504	57.95195	0.018347277
835	56.7	55.649	57.96833	0.017969775
836	56.75	57.129	57.99026	0.017504245
837	56.8	57.954	58.01796	0.017255064
838	56.85	58.2	58.0517	0.017182131
839	56.9	59.54	58.0918	0.016795432
840	56.95	61.394	58.13863	0.016288237
841	57	56.596	58.19265	0.017669093
842	57.05	53.664	58.25437	0.018634466
843	57.1	56.233	58.3244	0.017783152
844	57.15	55.337	58.40344	0.018071092
845	57.2	55.468	58.49232	0.018028413
846	57.25	55.073	58.59198	0.018157718
847	57.3	55.62	58.70354	0.017979144
848	57.35	56.204	58.82831	0.017792328
849	57.4	55.368	58.9678	0.018060974
850	57.45	55.679	59.12381	0.017960093
851	57.5	57.423	59.29846	0.017414625
852	57.55	57.247	59.49426	0.017468164
853	57.6	56.071	59.71421	0.017834531
854	57.65	58.519	59.9619	0.017088467
855	57.7	57.169	60.24169	0.017491997
856	57.75	57.803	60.55887	0.01730014
857	57.8	62.184	60.91993	0.016081307
858	57.85	60.271	61.33295	0.016591727
859	57.9	63.752	61.80821	0.015685782
860	57.95	62.382	62.35916	0.016030265
861	58	59.067	63.00459	0.016929927
862	58.05	58.809	63.77291	0.0170042
863	58.1	66.459	64.71105	0.015046871
864	58.15	67.539	65.90151	0.01480626
865	58.2	64.186	67.49177	0.015579721
866	58.25	61.193	69.73781	0.016341738
867	58.3	68.228	73.05663	0.014656739
868	58.35	68.674	78.06644	0.014561552
869	58.4	74.954	85.56572	0.013341516
870	58.45	85.223	96.42508	0.011733922
871	58.5	99.855	111.34306	0.010014521
872	58.55	115.98	130.49371	0.008622176
873	58.6	144.939	153.13594	0.006899454
874	58.65	175.251	177.30103	0.005706102
875	58.7	207.281	199.76143	0.004824369
876	58.75	240.116	216.6974	0.004164654
877	58.8	251.255	225.61322	0.00398002
878	58.85	243.582	227.82021	0.004105394
879	58.9	235.115	228.50169	0.004253238
880	58.95	236.449	233.56205	0.004229242
881	59	244.063	246.63336	0.004097303
882	59.05	269.484	267.84492	0.003710795
883	59.1	296.235	293.56966	0.003375698
884	59.15	338.12	316.97028	0.00295753
885	59.2	354.42	330.11457	0.002821511
886	59.25	353.807	327.721	0.0028264
887	59.3	335.119	309.5306	0.002984015
888	59.35	305.966	278.94738	0.003268337
889	59.4	262.598	241.1041	0.003808102
890	59.45	214.921	201.83288	0.004652872
891	59.5	173.373	166.02819	0.005767911
892	59.55	130.134	136.43897	0.007684387
893	59.6	107.594	113.79173	0.009294199
894	59.65	88.488	97.49817	0.011300967
895	59.7	76.774	86.33091	0.013025243
896	59.75	73.435	78.9192	0.013617485
897	59.8	68.541	74.0554	0.014589808
898	59.85	64.332	70.81176	0.015544364
899	59.9	62.779	68.55973	0.015928893
900	59.95	63.242	66.90862	0.015812277
901	60	63.819	65.63089	0.015669315
902	60.05	61.168	64.59615	0.016348417
903	60.1	57.354	63.73753	0.017435576
904	60.15	61.803	63.01714	0.016180444
905	60.2	59.781	62.40105	0.016727723
906	60.25	59.589	61.86969	0.016781621
907	60.3	59.98	61.40834	0.016672224
908	60.35	61.12	61.00555	0.016361257
909	60.4	60.601	60.65216	0.016501378
910	60.45	62.287	60.34081	0.016054714
911	60.5	58.552	60.06544	0.017078836
912	60.55	58.023	59.8211	0.017234545
913	60.6	60.998	59.60368	0.01639398
914	60.65	63.102	59.40974	0.015847358
915	60.7	65.535	59.23642	0.015259022
916	60.75	60.024	59.08128	0.016660003
917	60.8	57.879	58.94229	0.017277424
918	60.85	56.412	58.81769	0.017726725
919	60.9	57.136	58.70601	0.0175021
920	60.95	61.403	58.60597	0.016285849
921	61	57.406	58.51707	0.017419782
922	61.05	60.263	58.44831	0.01659393
923	61.1	62.147	58.37736	0.016090881
924	61.15	56.593	58.31458	0.01767003
925	61.2	57.41	58.25938	0.017418568
926	61.25	63.485	58.21129	0.015751752
927	61.3	65.654	58.16991	0.015231364
928	61.35	66.17	58.1353	0.015112589
929	61.4	67.486	58.1122	0.014817888
930	61.45	64.391	58.08933	0.015530121
931	61.5	62.271	58.0723	0.01605884
932	61.55	62.451	58.06107	0.016012554
933	61.6	65.142	58.05565	0.015351079
934	61.65	61.712	58.05615	0.016204304
935	61.7	61.609	58.06274	0.016231395
936	61.75	63.088	58.0757	0.015850875
937	61.8	66.991	58.09539	0.014927378
938	61.85	69.19	58.12232	0.014452956
939	61.9	67.305	58.15712	0.014857737
940	61.95	72.087	58.20061	0.013872127
941	62	69.582	58.25381	0.014371533
942	62.05	73.924	58.31803	0.013527407
943	62.1	74.863	58.39489	0.013357733
944	62.15	71.564	58.48648	0.013973506
945	62.2	68.529	58.59541	0.014592362
946	62.25	65.2	58.72511	0.015337423
947	62.3	63.834	58.8801	0.015665633
948	62.35	65.722	59.06668	0.015215605
949	62.4	61.486	59.29435	0.016263865
950	62.45	62.734	59.57869	0.015940319
951	62.5	62.094	59.94737	0.016104616
952	62.55	65.768	60.45115	0.015204963
953	62.6	64.374	61.18146	0.015534222
954	62.65	60.889	62.29337	0.016423328
955	62.7	61.058	64.02637	0.01637787
956	62.75	62.299	66.70655	0.016051622
957	62.8	66.921	70.70776	0.014942992
958	62.85	75.746	76.35372	0.013202017
959	62.9	77.318	83.76121	0.012933599
960	62.95	89.506	92.64423	0.011172435
961	63	99.954	102.10942	0.010004602
962	63.05	112.07	110.51693	0.008922995
963	63.1	111.259	115.66348	0.008988037
964	63.15	114.564	115.71212	0.008728746
965	63.2	111.813	110.57325	0.008943504
966	63.25	102.463	102.07283	0.009759621
967	63.3	86.271	92.53384	0.011591381
968	63.35	81.978	83.63951	0.012198395
969	63.4	79.414	76.26653	0.012592238
970	63.45	71.477	70.68035	0.013990514
971	63.5	65.413	66.75018	0.015287481
972	63.55	66.149	64.14192	0.015117387
973	63.6	67.121	62.47461	0.014898467
974	63.65	66.944	61.4188	0.014937859
975	63.7	64.658	60.73505	0.01546599
976	63.75	64.624	60.27021	0.015474127
977	63.8	62.322	59.93525	0.016045698
978	63.85	62.409	59.68136	0.01602333
979	63.9	61.102	59.48217	0.016366076
980	63.95	61.281	59.3228	0.016318272
981	64	58.54	59.19413	0.017082337
982	64.05	62.892	59.09001	0.015900273
983	64.1	57.803	59.00595	0.01730014
984	64.15	60.814	58.93854	0.016443582
985	64.2	61.326	58.88511	0.016306297
986	64.25	63.368	58.84356	0.015780836
987	64.3	60.806	58.81221	0.016445745
988	64.35	58.272	58.78967	0.017160901
989	64.4	57.928	58.77485	0.017262809
990	64.45	60.874	58.76685	0.016427375
991	64.5	62.592	58.76491	0.015976483
992	64.55	63.295	58.76842	0.015799036
993	64.6	58.603	58.77688	0.017063973
994	64.65	55.74	58.78988	0.017940438
995	64.7	55.452	58.80705	0.018033615
996	64.75	60.4	58.82812	0.016556291
997	64.8	58.563	58.85286	0.017075628
998	64.85	60.72	58.88178	0.016469038
999	64.9	59.739	58.92415	0.016739483
1000	64.95	60.48	58.95891	0.016534392
1001	65	59.827	58.99675	0.016714861
1002	65.05	61.009	59.0376	0.016391024
1003	65.1	57.21	59.08141	0.017479462
1004	65.15	56.903	59.12814	0.017573766
1005	65.2	58.11	59.17778	0.017208742
1006	65.25	61.004	59.23033	0.016392368
1007	65.3	62.135	59.28581	0.016093989
1008	65.35	59.903	59.34424	0.016693655
1009	65.4	61.266	59.40566	0.016322267
1010	65.45	63.795	59.47014	0.01567521
1011	65.5	55.377	59.54696	0.018058039
1012	65.55	61.575	59.62718	0.016240357
1013	65.6	62.327	59.70138	0.016044411
1014	65.65	61.04	59.77898	0.0163827
1015	65.7	57.912	59.8601	0.017267578
1016	65.75	59.223	59.94488	0.016885332
1017	65.8	63.611	60.03346	0.015720551
1018	65.85	64.335	60.12601	0.015543639
1019	65.9	61.42	60.2227	0.016281342
1020	65.95	60.419	60.33128	0.016551085
1021	66	60.536	60.453	0.016519096
1022	66.05	65.257	60.5635	0.015324027
1023	66.1	71.947	60.67903	0.01389912
1024	66.15	64.413	60.79896	0.015524816
1025	66.2	65.266	60.93146	0.015321913
1026	66.25	64.288	61.05854	0.015555002
1027	66.3	62.104	61.18735	0.016102022
1028	66.35	59.529	61.31095	0.016798535
1029	66.4	63.255	61.42518	0.015809027
1030	66.45	67.902	61.58566	0.014727107
1031	66.5	67.954	61.7542	0.014715837
1032	66.55	70.528	61.93132	0.014178766
1033	66.6	69.938	62.11763	0.014298379
1034	66.65	73.839	62.31377	0.013542979
1035	66.7	72.691	62.52046	0.013756861
1036	66.75	71.409	62.73847	0.014003837
1037	66.8	74.635	62.96867	0.01339854
1038	66.85	71.495	63.212	0.013986992
1039	66.9	75.208	63.46951	0.013296458
1040	66.95	67.941	63.74235	0.014718653
1041	67	66.821	64.0318	0.014965355
1042	67.05	65.678	64.33927	0.015225799
1043	67.1	70.48	64.66634	0.014188422
1044	67.15	67.696	65.01477	0.014771922
1045	67.2	66.05	65.38652	0.015140045
1046	67.25	65.073	65.78378	0.015367357
1047	67.3	61.545	66.20902	0.016248274
1048	67.35	61.966	66.66503	0.016137882
1049	67.4	67.028	67.15493	0.014919138
1050	67.45	64.657	67.6823	0.015466229
1051	67.5	61.278	68.25116	0.01631907
1052	67.55	61.317	68.86614	0.016308691
1053	67.6	64.782	69.53251	0.015436387
1054	67.65	71.574	70.25635	0.013971554
1055	67.7	71.748	71.04464	0.013937671
1056	67.75	69.318	71.90553	0.014426267
1057	67.8	67.913	72.84845	0.014724721
1058	67.85	64.578	73.88448	0.01548515
1059	67.9	70.578	75.02662	0.014168721
1060	67.95	70.342	76.29028	0.014216258
1061	68	75.527	77.69379	0.013240298
1062	68.05	75.081	79.25908	0.013318949
1063	68.1	76.12	81.01265	0.013137152
1064	68.15	78.581	82.98664	0.012725723
1065	68.2	82.922	85.22045	0.012059526
1066	68.25	82.047	87.76277	0.012188136
1067	68.3	84.178	90.67438	0.011879588
1068	68.35	90.893	94.0322	0.011001947
1069	68.4	92.323	97.93555	0.010831537
1070	68.45	92.452	102.51726	0.010816424
1071	68.5	99.793	107.96543	0.010020743
1072	68.55	116.675	114.56903	0.008570816
1073	68.6	120.842	122.81162	0.008275269
1074	68.65	137.256	133.5495	0.007285656
1075	68.7	151.61	148.3085	0.006595871
1076	68.75	178.253	169.69103	0.005610004
1077	68.8	206.094	201.7749	0.004852155
1078	68.85	247.214	250.22131	0.004045078
1079	68.9	298.839	321.68464	0.003346283
1080	68.95	372.782	422.18243	0.002682533
1081	69	470.557	554.38023	0.002125141
1082	69.05	625.98	713.97899	0.001597495
1083	69.1	791.143	885.27156	0.001263994
1084	69.15	970.501	1037.08935	0.001030396
1085	69.2	1097.595	1126.88029	0.000911083
1086	69.25	1116.766	1124.91893	0.000895443
1087	69.3	1052.025	1043.66026	0.000950548
1088	69.35	957.512	930.432	0.001044373
1089	69.4	874.341	833.58142	0.001143719
1090	69.45	843.281	784.58038	0.001185844
1091	69.5	897.779	797.12653	0.00111386
1092	69.55	1013.117	868.67949	0.000987053
1093	69.6	1170.889	980.08187	0.000854052
1094	69.65	1327.541	1094.17826	0.000753272
1095	69.7	1389.431	1160.10773	0.000719719
1096	69.75	1360.64	1136.16201	0.000734948
1097	69.8	1181.276	1021.67095	0.000846542
1098	69.85	942.813	855.04131	0.001060656
1099	69.9	683.607	679.51797	0.001462829
1100	69.95	482.955	522.65719	0.002070586
1101	70	348.365	396.51754	0.002870552
1102	70.05	256.928	302.85915	0.003892141
1103	70.1	206.189	237.50741	0.004849919
1104	70.15	163.177	193.78033	0.006128315
1105	70.2	132.391	164.96988	0.007553384
1106	70.25	112.789	145.69101	0.008866113
1107	70.3	105.072	132.23074	0.009517283
1108	70.35	92.347	122.29914	0.010828722
1109	70.4	87.922	114.58485	0.011373718
1110	70.45	75.296	108.35849	0.013280918
1111	70.5	77.171	103.20436	0.012958236
1112	70.55	77.32	98.86801	0.012933264
1113	70.6	72.304	95.17909	0.013830493
1114	70.65	73.248	92.01738	0.01365225
1115	70.7	70.938	89.33761	0.014096817
1116	70.75	68.308	86.96335	0.014639574
1117	70.8	69.107	84.89002	0.014470314
1118	70.85	70.527	83.0713	0.014178967
1119	70.9	72.703	81.46913	0.013754591
1120	70.95	68.256	80.05415	0.014650727
1121	71	68.662	78.80232	0.014564097
1122	71.05	70.857	77.69171	0.014112932
1123	71.1	69.918	76.70515	0.014302469
1124	71.15	80.537	75.82831	0.012416653
1125	71.2	82.193	75.04924	0.012166486
1126	71.25	75.284	74.35792	0.013283035
1127	71.3	76.868	73.74598	0.013009315
1128	71.35	80.289	73.20647	0.012455006
1129	71.4	79.377	72.73361	0.012598108
1130	71.45	77.277	72.32271	0.012940461
1131	71.5	75.21	71.97001	0.013296104
1132	71.55	78.492	71.67262	0.012740152
1133	71.6	74.983	71.42848	0.013336356
1134	71.65	79.566	71.23631	0.012568182
1135	71.7	80.231	71.09566	0.01246401
1136	71.75	81.363	71.0069	0.012290599
1137	71.8	80.261	70.97134	0.012459351
1138	71.85	80.956	70.99096	0.012352389
1139	71.9	79.728	71.06899	0.012542645
1140	71.95	76.137	71.20995	0.013134219
1141	72	75.15	71.41833	0.01330672
1142	72.05	71.07	71.70552	0.014070635
1143	72.1	72.127	72.09543	0.013864434
1144	72.15	75.144	72.59975	0.013307782
1145	72.2	72.67	73.25069	0.013760837
1146	72.25	74.781	74.10237	0.013372381
1147	72.3	76.693	75.24559	0.013039
1148	72.35	71.579	76.84333	0.013970578
1149	72.4	72.959	79.13732	0.013706328
1150	72.45	76.139	82.45381	0.013133874
1151	72.5	80.706	87.18745	0.012390652
1152	72.55	85.916	93.71997	0.011639276
1153	72.6	91.908	102.29155	0.010880446
1154	72.65	104.45	112.81273	0.009573959
1155	72.7	115.164	124.58378	0.008683269
1156	72.75	129.785	136.01709	0.007705051
1157	72.8	141.631	145.01154	0.007060601
1158	72.85	152.001	150.57462	0.006578904
1159	72.9	152.332	153.91293	0.006564609
1160	72.95	150.327	156.95058	0.006652165
1161	73	151.633	160.41383	0.006594871
1162	73.05	154.276	163.93882	0.00648189
1163	73.1	157.346	167.95019	0.006355421
1164	73.15	158.163	174.80294	0.006322591
1165	73.2	169.327	187.27787	0.005905733
1166	73.25	184.921	206.4706	0.005407715
1167	73.3	216.764	230.65414	0.004613312
1168	73.35	246.255	254.46268	0.004060831
1169	73.4	267.188	269.25844	0.003742683
1170	73.45	267.726	267.88836	0.003735162
1171	73.5	266.566	251.57633	0.003751416
1172	73.55	248.547	228.97502	0.004023384
1173	73.6	212.683	208.83149	0.004701833
1174	73.65	203.29	196.23962	0.004919081
1175	73.7	193.692	192.82288	0.005162836
1176	73.75	202.515	197.39922	0.004937906
1177	73.8	216.661	206.10004	0.004615505
1178	73.85	236.448	212.94082	0.00422926
1179	73.9	235.037	212.62969	0.004254649
1180	73.95	217.629	205.02865	0.004594976
1181	74	201.357	195.26531	0.004966304
1182	74.05	184.981	189.38935	0.005405961
1183	74.1	176.278	191.71767	0.005672858
1184	74.15	188.434	204.68586	0.005306898
1185	74.2	217.39	229.02484	0.004600028
1186	74.25	260.619	263.43798	0.003837019
1187	74.3	304.749	303.74243	0.003281389
1188	74.35	344.973	342.85508	0.002898778
1189	74.4	387.503	374.64259	0.002580625
1190	74.45	428.468	399.13364	0.002333897
1191	74.5	453.602	419.6528	0.002204576
1192	74.55	496.372	434.01649	0.002014618
1193	74.6	520.268	432.09649	0.001922086
1194	74.65	488.449	404.75569	0.002047297
1195	74.7	432.39	355.37419	0.002312727
1196	74.75	361.235	297.14731	0.002768281
1197	74.8	269.755	241.84435	0.003707068
1198	74.85	205.037	195.47518	0.004877169
1199	74.9	156.194	159.71958	0.006402295
1200	74.95	129.448	133.84367	0.00772511
1201	75	114.682	115.9656	0.008719764
1202	75.05	105.181	103.9137	0.009507421
1203	75.1	100.135	95.76897	0.009986518
1204	75.15	94.909	90.10983	0.010536409
1205	75.2	86.353	85.97506	0.011580374
1206	75.25	80.191	82.80685	0.012470227
1207	75.3	78.473	80.27942	0.012743237
1208	75.35	71.187	78.20533	0.014047509
1209	75.4	72.687	76.47109	0.013757618
1210	75.45	71.577	75.00232	0.013970968
1211	75.5	68.027	73.74642	0.014700046
1212	75.55	66.254	72.66413	0.015093428
1213	75.6	67.275	71.72517	0.014864363
1214	75.65	68.323	70.90572	0.01463636
1215	75.7	69.794	70.18679	0.014327879
1216	75.75	70.786	69.55307	0.014127087
1217	75.8	69.822	68.99214	0.014322133
1218	75.85	70.594	68.49382	0.01416551
1219	75.9	72.798	68.04968	0.013736641
1220	75.95	72.004	67.65274	0.013888117
1221	76	69.813	67.29716	0.01432398
1222	76.05	75.291	66.97802	0.0132818
1223	76.1	77.271	66.69117	0.012941466
1224	76.15	80.461	66.43307	0.012428381
1225	76.2	82.294	66.20073	0.012151554
1226	76.25	82.736	65.99157	0.012086637
1227	76.3	82.034	65.80338	0.012190068
1228	76.35	88.978	65.63426	0.011238733
1229	76.4	86.791	65.48259	0.011521932
1230	76.45	77.27	65.34694	0.012941633
1231	76.5	79.721	65.22612	0.012543746
1232	76.55	83.276	65.11909	0.012008262
1233	76.6	82.373	65.02495	0.0121399
1234	76.65	88.222	64.94296	0.011335041
1235	76.7	86.785	64.87247	0.011522729
1236	76.75	88.666	64.81298	0.01127828
1237	76.8	88.589	64.76405	0.011288083
1238	76.85	82.366	64.72537	0.012140932
1239	76.9	80.001	64.69669	0.012499844
1240	76.95	77.71	64.67787	0.012868357
1241	77	70.631	64.66885	0.014158089
1242	77.05	71.483	64.66961	0.01398934
1243	77.1	67.912	64.68002	0.014724938
1244	77.15	72.049	64.69998	0.013879443
1245	77.2	68.468	64.72822	0.014605363
1246	77.25	67.498	64.76809	0.014815254
1247	77.3	72.851	64.82186	0.013726648
1248	77.35	68	64.88776	0.014705882
1249	77.4	69.836	64.96663	0.014319262
1250	77.45	65.295	65.05947	0.015315108
1251	77.5	64.626	65.16719	0.015473648
1252	77.55	69.07	65.29088	0.014478066
1253	77.6	71.996	65.43061	0.013889661
1254	77.65	70.444	65.59025	0.014195673
1255	77.7	70.239	65.77675	0.014237105
1256	77.75	68.364	65.98822	0.014627582
1257	77.8	70.259	66.2305	0.014233052
1258	77.85	66.449	66.50897	0.015049135
1259	77.9	61.604	66.82774	0.016232712
1260	77.95	70.937	67.19371	0.014097016
1261	78	68.063	67.61547	0.01469227
1262	78.05	71.596	68.10378	0.013967261
1263	78.1	67.322	68.67224	0.014853985
1264	78.15	73.324	69.33831	0.013638099
1265	78.2	78.086	70.12476	0.012806393
1266	78.25	76.167	71.0623	0.013129045
1267	78.3	79.239	72.19433	0.012620048
1268	78.35	81.211	73.58673	0.012313603
1269	78.4	87.576	75.36647	0.011418654
1270	78.45	88.346	77.6803	0.011319132
1271	78.5	95.855	80.86363	0.010432424
1272	78.55	102.16	85.43691	0.009788567
1273	78.6	109.393	92.17736	0.009141353
1274	78.65	125.819	102.1045	0.007947925
1275	78.7	129.862	116.33022	0.007700482
1276	78.75	148.52	135.73217	0.0067331
1277	78.8	177.22	160.42054	0.005642704
1278	78.85	201.067	188.87607	0.004973467
1279	78.9	225.861	216.58634	0.004427502
1280	78.95	243.11	235.5791	0.004113364
1281	79	229.962	238.75734	0.004348545
1282	79.05	219.161	227.39017	0.004562856
1283	79.1	202.912	210.19967	0.004928245
1284	79.15	182.382	195.30943	0.005482997
1285	79.2	170.902	186.3005	0.005851307
1286	79.25	161.942	182.49543	0.00617505
1287	79.3	159.765	179.6928	0.006259193
1288	79.35	150.267	172.52705	0.006654821
1289	79.4	135.304	158.99297	0.007390765
1290	79.45	128.659	141.82655	0.007772484
1291	79.5	111.48	124.82634	0.008970219
1292	79.55	97.458	110.21205	0.01026083
1293	79.6	97.607	98.69742	0.010245167
1294	79.65	92.633	90.16571	0.010795289
1295	79.7	88.988	84.1128	0.01123747
1296	79.75	88.337	79.91572	0.011320285
1297	79.8	83.836	77.00123	0.01192805
1298	79.85	84.739	74.92718	0.011800942
1299	79.9	82.455	73.39314	0.012127827
1300	79.95	78.181	72.21222	0.012790832
1301	80	78.201	71.2733	0.01278756
1302	80.05	78.993	70.51005	0.01265935
1303	80.1	72.992	69.88094	0.013700132
1304	80.15	73.063	69.35803	0.013686818
1305	80.2	68.478	68.9213	0.01460323
1306	80.25	74.284	68.55568	0.013461849
1307	80.3	71.223	68.24955	0.014040408
1308	80.35	70.253	67.99379	0.014234268
1309	80.4	74.842	67.78117	0.013361482
1310	80.45	68.969	67.60588	0.014499268
1311	80.5	63.992	67.46327	0.015626953
1312	80.55	76.826	67.3496	0.013016427
1313	80.6	74.035	67.26182	0.013507125
1314	80.65	68.833	67.19748	0.014527915
1315	80.7	66.76	67.15463	0.014979029
1316	80.75	71.661	67.1317	0.013954592
1317	80.8	67.456	67.12748	0.014824478
1318	80.85	67.884	67.14104	0.014731012
1319	80.9	67.302	67.17173	0.014858399
1320	80.95	68.029	67.21913	0.014699613
1321	81	72.88	67.28302	0.013721186
1322	81.05	70.421	67.36343	0.01420031
1323	81.1	66.697	67.46056	0.014993178
1324	81.15	68.411	67.57483	0.014617532
1325	81.2	67.284	67.70686	0.014862374
1326	81.25	66.508	67.85751	0.015035785
1327	81.3	66.38	68.02777	0.015064779
1328	81.35	67.094	68.21879	0.014904462
1329	81.4	71.893	68.43135	0.01390956
1330	81.45	70.651	68.66926	0.014154081
1331	81.5	70.671	68.93805	0.014150076
1332	81.55	76.159	69.2346	0.013130425
1333	81.6	72.731	69.56467	0.013749295
1334	81.65	77.235	69.93265	0.012947498
1335	81.7	75.162	70.34368	0.013304595
1336	81.75	71.172	70.80394	0.014050469
1337	81.8	73.184	71.32101	0.013664189
1338	81.85	73.102	71.90419	0.013679516
1339	81.9	68.075	72.56502	0.01468968
1340	81.95	71.22	73.31794	0.014041
1341	82	69.819	74.1832	0.014322749
1342	82.05	68.852	75.18956	0.014523906
1343	82.1	72.762	76.3604	0.013743438
1344	82.15	73.071	77.73058	0.01368532
1345	82.2	70.923	79.36992	0.014099798
1346	82.25	77.252	81.3754	0.012944649
1347	82.3	73.703	83.90671	0.013567969
1348	82.35	85.505	87.2328	0.011695223
1349	82.4	79.733	91.7933	0.012541858
1350	82.45	85.12	98.25464	0.01174812
1351	82.5	92.049	107.51652	0.010863779
1352	82.55	106.928	120.61079	0.009352087
1353	82.6	126.532	138.44376	0.007903139
1354	82.65	157.066	161.32894	0.00636675
1355	82.7	181.517	188.1381	0.005509126
1356	82.75	220.133	214.82312	0.004542708
1357	82.8	247.356	233.43913	0.004042756
1358	82.85	260.871	236.06209	0.003833312
1359	82.9	254.824	223.01102	0.003924277
1360	82.95	231.504	202.78293	0.00431958
1361	83	200.1	183.90796	0.004997501
1362	83.05	181.03	171.29042	0.005523946
1363	83.1	185.115	167.31826	0.005402047
1364	83.15	195.634	173.27256	0.005111586
1365	83.2	217.673	189.88927	0.004594047
1366	83.25	252.071	217.26003	0.003967136
1367	83.3	298.074	254.06003	0.003354872
1368	83.35	332.028	295.68177	0.003011794
1369	83.4	358.9	331.64825	0.002786291
1370	83.45	363.764	347.61912	0.002749035
1371	83.5	357.678	337.89277	0.002795811
1372	83.55	336.163	313.22524	0.002974747
1373	83.6	315.701	289.84573	0.003167554
1374	83.65	304.165	278.75049	0.003287689
1375	83.7	306.422	285.03486	0.003263473
1376	83.75	317.926	309.69802	0.003145386
1377	83.8	332.19	349.6361	0.003010325
1378	83.85	365.41	395.37823	0.002736652
1379	83.9	383.28	429.51538	0.002609059
1380	83.95	387.775	435.36809	0.002578815
1381	84	370.688	413.53607	0.002697686
1382	84.05	356.349	379.40661	0.002806238
1383	84.1	319.693	344.61127	0.003128001
1384	84.15	290.946	309.93181	0.003437064
1385	84.2	257.248	272.20793	0.003887299
1386	84.25	230.528	232.84513	0.004337868
1387	84.3	216.241	196.70013	0.00462447
1388	84.35	196.791	166.89805	0.005081533
1389	84.4	190.19	143.90047	0.0052579
1390	84.45	185.138	126.83564	0.005401376
1391	84.5	167.803	114.45488	0.005959369
1392	84.55	151.626	105.53775	0.006595175
1393	84.6	133.341	99.05638	0.007499569
1394	84.65	122.723	94.23277	0.008148432
1395	84.7	109.626	90.52776	0.009121924
1396	84.75	94.306	87.59124	0.010603779
1397	84.8	84.537	85.20299	0.01182914
1398	84.85	81.792	83.22345	0.012226135
1399	84.9	78.339	81.5605	0.012765034
1400	84.95	71.743	80.14987	0.013938642
1401	85	72.065	78.94438	0.013876362
1402	85.05	70.184	77.9081	0.014248262
1403	85.1	75.318	77.01303	0.013277039
1404	85.15	68.54	76.237	0.01459002
1405	85.2	70.722	75.56226	0.014139872
1406	85.25	65.748	74.97446	0.015209588
1407	85.3	68.15	74.4619	0.014673514
1408	85.35	72.776	74.01502	0.013740794
1409	85.4	69.177	73.6259	0.014455672
1410	85.45	66.893	73.288	0.014949247
1411	85.5	67.265	72.9959	0.014866573
1412	85.55	68.592	72.74507	0.01457896
1413	85.6	64.978	72.53175	0.015389824
1414	85.65	64.691	72.3528	0.015458101
1415	85.7	64.493	72.20566	0.015505559
1416	85.75	66.541	72.0882	0.015028328
1417	85.8	71.372	71.99873	0.014011097
1418	85.85	66.984	71.9359	0.014928938
1419	85.9	64.782	71.8987	0.015436387
1420	85.95	68.989	71.88643	0.014495064
1421	86	71.039	71.89867	0.014076775
1422	86.05	67.197	71.93527	0.014881617
1423	86.1	64.457	71.99792	0.015514219
1424	86.15	70.726	72.08455	0.014139072
1425	86.2	76.442	72.21408	0.013081814
1426	86.25	74.463	72.37396	0.013429488
1427	86.3	69.619	72.54447	0.014363895
1428	86.35	69.016	72.74072	0.014489394
1429	86.4	65.008	72.9688	0.015382722
1430	86.45	70.123	73.2314	0.014260656
1431	86.5	69.512	73.53177	0.014386005
1432	86.55	70.329	73.87386	0.014218886
1433	86.6	69.182	74.26246	0.014454627
1434	86.65	71.682	74.70336	0.013950504
1435	86.7	72.296	75.20486	0.013832024
1436	86.75	72.513	75.77417	0.013790631
1437	86.8	73.493	76.42154	0.013606738
1438	86.85	73.46	77.16047	0.013612851
1439	86.9	73.536	78.00747	0.013598782
1440	86.95	76.027	78.98326	0.013153222
1441	87	75.411	80.11428	0.013260665
1442	87.05	73.764	81.43473	0.013556749
1443	87.1	73.927	82.98989	0.013526858
1444	87.15	68.396	84.84175	0.014620738
1445	87.2	70.687	87.07945	0.014146873
1446	87.25	72.577	89.83516	0.01377847
1447	87.3	77.125	93.31266	0.012965964
1448	87.35	78.303	97.88011	0.012770903
1449	87.4	84.218	104.15932	0.011873946
1450	87.45	87.771	112.98347	0.011393285
1451	87.5	106.655	125.52744	0.009376026
1452	87.55	125.323	143.16747	0.007979381
1453	87.6	156.751	167.17789	0.006379545
1454	87.65	203.702	198.09615	0.004909132
1455	87.7	239.301	234.3615	0.004178838
1456	87.75	304.042	269.77762	0.003289019
1457	87.8	318.78	292.08972	0.00313696
1458	87.85	296.844	290.17572	0.003368773
1459	87.9	260.602	266.50632	0.003837269
1460	87.95	225.384	234.04095	0.004436872
1461	88	201.204	203.57339	0.00497008
1462	88.05	186.471	179.77504	0.005362764
1463	88.1	184.128	163.58118	0.005431005
1464	88.15	206.178	154.43029	0.004850178
1465	88.2	215.062	151.40783	0.004649822
1466	88.25	228.161	153.86923	0.00438287
1467	88.3	233.796	161.85558	0.004277233
1468	88.35	238.477	176.39588	0.004193277
1469	88.4	253.388	199.69699	0.003946517
1470	88.45	256.88	235.13286	0.003892868
1471	88.5	298.595	286.86398	0.003349018
1472	88.55	385.456	358.86629	0.00259433
1473	88.6	502.211	452.9019	0.001991195
1474	88.65	647.05	564.08304	0.001545476
1475	88.7	781.475	672.51704	0.001279631
1476	88.75	868.17	738.42826	0.001151848
1477	88.8	837.604	725.40652	0.001193882
1478	88.85	730.135	640.99253	0.00136961
1479	88.9	568.698	527.1768	0.001758403
1480	88.95	416.107	418.50283	0.002403228
1481	89	300.856	329.38322	0.003323849
1482	89.05	219.554	261.98293	0.004554688
1483	89.1	168.19	213.47634	0.005945657
1484	89.15	134.699	179.55344	0.00742396
1485	89.2	114.331	156.00045	0.008746534
1486	89.25	106.579	139.41263	0.009382711
1487	89.3	101.15	127.38737	0.009886307
1488	89.35	95.023	118.32352	0.010523768
1489	89.4	89.651	111.26288	0.011154365
1490	89.45	85.753	105.61686	0.0116614
1491	89.5	78.736	101.01476	0.012700671
1492	89.55	81.717	97.21087	0.012237356
1493	89.6	79.191	94.03239	0.012627698
1494	89.65	72.39	91.35254	0.013814063
1495	89.7	73.282	89.07562	0.013645916
1496	89.75	70.978	87.12804	0.014088873
1497	89.8	73.496	85.45242	0.013606183
1498	89.85	77.542	84.0035	0.012896237
1499	89.9	78.101	82.74525	0.012803933
1500	89.95	74.151	81.64876	0.013485995
1501	90	75.74	80.69063	0.013203063
1502	90.05	78.988	79.8518	0.012660151
1503	90.1	79.253	79.11668	0.012617819
1504	90.15	74.654	78.47245	0.01339513
1505	90.2	79.691	77.90851	0.012548468
1506	90.25	80.037	77.41614	0.012494221
1507	90.3	88.082	76.98812	0.011353057
1508	90.35	85.78	76.61854	0.011657729
1509	90.4	84.89	76.30255	0.011779951
1510	90.45	91.222	76.03628	0.010962268
1511	90.5	87.692	75.81668	0.011403549
1512	90.55	90.357	75.64148	0.011067211
1513	90.6	87.348	75.50911	0.011448459
1514	90.65	92.504	75.41867	0.010810343
1515	90.7	91.873	75.36994	0.010884591
1516	90.75	89.478	75.36336	0.011175932
1517	90.8	93.714	75.39936	0.010670764
1518	90.85	89.295	75.47948	0.011198835
1519	90.9	88.996	75.61043	0.01123646
1520	90.95	91.769	75.79399	0.010896926
1521	91	87.881	76.03557	0.011379024
1522	91.05	93.062	76.34155	0.010745524
1523	91.1	91.989	76.72062	0.010870865
1524	91.15	86.937	77.18812	0.011502582
1525	91.2	91.903	77.75728	0.010881038
1526	91.25	82.997	78.45961	0.012048628
1527	91.3	77.457	79.30126	0.012910389
1528	91.35	81.475	80.325	0.012273704
1529	91.4	78.618	81.58168	0.012719733
1530	91.45	79.091	83.14499	0.012643664
1531	91.5	80.712	85.13497	0.012389731
1532	91.55	83.462	87.71377	0.011981501
1533	91.6	83.663	91.17004	0.011952715
1534	91.65	94.475	95.92429	0.010584811
1535	91.7	102.874	102.57851	0.009720629
1536	91.75	116.485	111.91048	0.008584796
1537	91.8	124.397	124.77693	0.008038779
1538	91.85	147.63	141.86816	0.006773691
1539	91.9	169.108	163.10347	0.005913381
1540	91.95	177.896	186.25982	0.005621262
1541	92	189.735	205.16584	0.005270509
1542	92.05	199.125	211.44298	0.005021971
1543	92.1	193.771	202.65882	0.005160731
1544	92.15	182.065	185.63343	0.005492544
1545	92.2	170.649	168.6748	0.005859982
1546	92.25	166.393	156.07049	0.006009868
1547	92.3	158.809	148.54735	0.006296872
1548	92.35	146.967	144.7279	0.006804249
1549	92.4	140.333	142.3434	0.007125908
1550	92.45	136.498	140.28134	0.007326115
1551	92.5	135.382	139.69966	0.007386506
1552	92.55	136.516	142.68142	0.007325149
1553	92.6	151.948	150.79529	0.006581199
1554	92.65	165.406	164.80994	0.00604573
1555	92.7	177.131	184.33926	0.005645539
1556	92.75	195.985	206.25093	0.005102431
1557	92.8	201.999	222.86137	0.00495052
1558	92.85	199.499	224.73569	0.005012556
1559	92.9	197.272	210.14928	0.005069143
1560	92.95	176.252	187.13978	0.005673694
1561	93	162.177	164.37079	0.006166102
1562	93.05	150.72	146.01596	0.00663482
1563	93.1	129.542	133.03089	0.007719504
1564	93.15	126.491	125.16731	0.007905701
1565	93.2	117.792	121.98133	0.008489541
1566	93.25	115.706	123.18101	0.008642594
1567	93.3	120.104	128.74143	0.008326117
1568	93.35	125.711	138.72101	0.007954753
1569	93.4	135.268	152.83958	0.007392731
1570	93.45	144.269	169.33195	0.006931496
1571	93.5	147.506	183.3041	0.006779385
1572	93.55	157.331	187.45842	0.006356026
1573	93.6	160.014	178.4491	0.006249453
1574	93.65	151.471	160.94755	0.006601924
1575	93.7	131.833	141.96896	0.007585354
1576	93.75	127.373	125.49162	0.007850957
1577	93.8	116.004	112.58305	0.008620392
1578	93.85	107.904	102.9876	0.009267497
1579	93.9	100.976	96.04614	0.009903343
1580	93.95	85.127	91.06645	0.011747154
1581	94	78.174	87.46277	0.012791977
1582	94.05	75.862	84.79647	0.01318183
1583	94.1	76.472	82.76626	0.013076682
1584	94.15	75.707	81.17628	0.013208818
1585	94.2	75.475	79.90178	0.01324942
1586	94.25	74.837	78.86216	0.013362374
1587	94.3	70.269	78.0033	0.014231026
1588	94.35	77.013	77.28714	0.012984821
1589	94.4	74.076	76.68581	0.013499649
1590	94.45	73.867	76.17836	0.013537845
1591	94.5	74.286	75.74868	0.013461487
1592	94.55	71.959	75.38422	0.013896802
1593	94.6	74.014	75.0751	0.013510957
1594	94.65	74.431	74.81345	0.013435262
1595	94.7	77.066	74.593	0.012975891
1596	94.75	79.58	74.40868	0.012565971
1597	94.8	83.542	74.25641	0.011970027
1598	94.85	89.148	74.13286	0.011217302
1599	94.9	89.215	74.03537	0.011208877
1600	94.95	94.289	73.96177	0.010605691
1601	95	92.076	73.91035	0.010860593
1602	95.05	96.848	73.87976	0.010325458
1603	95.1	92.185	73.86896	0.010847752
1604	95.15	92.36	73.87721	0.010827198
1605	95.2	89.139	73.90403	0.011218434
1606	95.25	88.274	73.94915	0.011328364
1607	95.3	80.287	74.01255	0.012455317
1608	95.35	78.88	74.09441	0.012677485
1609	95.4	77.185	74.19513	0.012955885
1610	95.45	79.325	74.31535	0.012606366
1611	95.5	76.889	74.45593	0.013005762
1612	95.55	77.82	74.61801	0.012850167
1613	95.6	66.957	74.80297	0.014934958
1614	95.65	70.124	75.01255	0.014260453
1615	95.7	77.094	75.24883	0.012971178
1616	95.75	74.722	75.51431	0.013382939
1617	95.8	73.163	75.812	0.013668111
1618	95.85	73.51	76.14545	0.013603591
1619	95.9	78.174	76.51894	0.012791977
1620	95.95	75.431	76.93758	0.013257149
1621	96	74.968	77.40753	0.013339025
1622	96.05	75.448	77.9362	0.013254162
1623	96.1	74.899	78.53258	0.013351313
1624	96.15	75.242	79.20767	0.013290449
1625	96.2	73.684	79.97498	0.013571467
1626	96.25	74.843	80.85128	0.013361303
1627	96.3	72.508	81.85753	0.013791582
1628	96.35	75.941	83.02024	0.013168117
1629	96.4	74.452	84.37332	0.013431473
1630	96.45	83.373	85.96072	0.011994291
1631	96.5	83.111	87.84052	0.012032102
1632	96.55	90.447	90.09137	0.011056199
1633	96.6	86.806	92.82328	0.011519941
1634	96.65	88.609	96.196	0.011285535
1635	96.7	97.181	100.4491	0.010290077
1636	96.75	104.141	105.94691	0.009602366
1637	96.8	112.063	113.23674	0.008923552
1638	96.85	128.544	123.10778	0.007779437
1639	96.9	154.916	136.62288	0.006455111
1640	96.95	178.162	155.07792	0.005612869
1641	97	222.194	179.82578	0.004500572
1642	97.05	259.826	211.56645	0.00384873
1643	97.1	276.661	248.6266	0.003614532
1644	97.15	292.617	283.78543	0.003417436
1645	97.2	281.461	303.55056	0.00355289
1646	97.25	272.551	297.87722	0.003669038
1647	97.3	244.442	272.01762	0.00409095
1648	97.35	213.627	240.24878	0.004681056
1649	97.4	183.91	212.93242	0.005437442
1650	97.45	179.957	194.0367	0.005556883
1651	97.5	177.73	184.23463	0.005626512
1652	97.55	191.688	183.23407	0.005216811
1653	97.6	197.432	190.6325	0.005065035
1654	97.65	211.34	205.83114	0.004731712
1655	97.7	235.936	227.00433	0.004238438
1656	97.75	237.002	249.10834	0.004219374
1657	97.8	236.844	263.64574	0.004222188
1658	97.85	247.812	265.01463	0.004035317
1659	97.9	249.61	257.59418	0.00400625
1660	97.95	250.186	251.23434	0.003997026
1661	98	265.468	252.92228	0.003766932
1662	98.05	284.594	264.41421	0.003513778
1663	98.1	308.777	282.22158	0.003238583
1664	98.15	323.505	297.75509	0.003091142
1665	98.2	322.936	301.72041	0.003096589
1666	98.25	314.502	290.89804	0.00317963
1667	98.3	296.718	267.60076	0.003370203
1668	98.35	264.138	236.63186	0.0037859
1669	98.4	222.598	204.45109	0.004492403
1670	98.45	183.191	176.12034	0.005458783
1671	98.5	157.594	153.50322	0.006345419
1672	98.55	135.929	136.32708	0.007356782
1673	98.6	118.691	123.55887	0.008425239
1674	98.65	103.209	114.10367	0.009689078
1675	98.7	94.789	107.04229	0.010549747
1676	98.75	91.407	101.67818	0.010940081
1677	98.8	88.611	97.51499	0.011285281
1678	98.85	86.739	94.21251	0.011528839
1679	98.9	77.17	91.54137	0.012958404
1680	98.95	81.691	89.34657	0.012241251
1681	99	76.601	87.51997	0.01305466
1682	99.05	76.421	85.98452	0.013085408
1683	99.1	73.841	84.68354	0.013542612
1684	99.15	74.693	83.57415	0.013388135
1685	99.2	67.901	82.62328	0.014727324
1686	99.25	66.737	81.80511	0.014984192
1687	99.3	70.186	81.09923	0.014247856
1688	99.35	70.503	80.48935	0.014183794
1689	99.4	75.653	79.96244	0.013218246
1690	99.45	68.279	79.50799	0.014645792
1691	99.5	69.383	79.11753	0.014412752
1692	99.55	69.567	78.78423	0.014374632
1693	99.6	65.942	78.50265	0.015164842
1694	99.65	70.617	78.26844	0.014160896
1695	99.7	71.304	78.07825	0.014024459
1696	99.75	72.688	77.9296	0.013757429
1697	99.8	65.2	77.82084	0.015337423
1698	99.85	71.904	77.75108	0.013907432
1699	99.9	69.559	77.72018	0.014376285
1700	99.95	70.88	77.72883	0.014108352
1701	100	68.68	77.77858	0.01456028
1702	100.05	75.86	77.87199	0.013182178
1703	100.1	75.697	78.01282	0.013210563
1704	100.15	73.11	78.20633	0.013678019
1705	100.2	70.184	78.45974	0.014248262
1706	100.25	67.282	78.78288	0.014862816
1707	100.3	61.607	79.18926	0.016231922
1708	100.35	70.308	79.6978	0.014223133
1709	100.4	70.648	80.33558	0.014154682
1710	100.45	77.135	81.14197	0.012964283
1711	100.5	81.435	82.17442	0.012279732
1712	100.55	80.875	83.51548	0.01236476
1713	100.6	85.284	85.27926	0.011725529
1714	100.65	82.907	87.61483	0.012061708
1715	100.7	83.816	90.69876	0.011930896
1716	100.75	94.633	94.69527	0.010567138
1717	100.8	96.118	99.61629	0.010403879
1718	100.85	92.274	105.06169	0.010837289
1719	100.9	97.148	109.77757	0.010293573
1720	100.95	100.402	112.04281	0.009959961
1721	101	99.865	111.23503	0.010013518
1722	101.05	98.086	108.61845	0.010195135
1723	101.1	90.614	105.98223	0.011035822
1724	101.15	93.057	104.4084	0.010746102
1725	101.2	88.658	104.29697	0.011279298
1726	101.25	91.239	105.78305	0.010960225
1727	101.3	94.306	109.01798	0.010603779
1728	101.35	106.261	114.3056	0.00941079
1729	101.4	108.836	122.15653	0.009188136
1730	101.45	117.691	133.32291	0.008496826
1731	101.5	137.31	148.75685	0.007282791
1732	101.55	157.703	169.33366	0.006341033
1733	101.6	182.104	195.27565	0.005491368
1734	101.65	213.118	225.13832	0.004692236
1735	101.7	254.82	254.55105	0.003924339
1736	101.75	272.879	275.21415	0.003664628
1737	101.8	274.989	277.42138	0.003636509
1738	101.85	258.591	258.87159	0.003867111
1739	101.9	225.093	228.14307	0.004442608
1740	101.95	194.326	196.02254	0.005145992
1741	102	162.104	168.44445	0.006168879
1742	102.05	145.491	146.81928	0.006873277
1743	102.1	116.216	130.54969	0.008604667
1744	102.15	107.363	118.50671	0.009314196
1745	102.2	95.815	109.60751	0.010436779
1746	102.25	89.626	102.98095	0.011157477
1747	102.3	81.399	97.96438	0.012285163
1748	102.35	85.103	94.091	0.011750467
1749	102.4	78.67	91.03947	0.012711326
1750	102.45	75.427	88.59121	0.013257852
1751	102.5	75.108	86.5974	0.013314161
1752	102.55	77.681	84.95166	0.012873161
1753	102.6	77.474	83.57869	0.012907556
1754	102.65	73.822	82.42281	0.013546097
1755	102.7	75.214	81.44197	0.013295397
1756	102.75	73.091	80.60382	0.013681575
1757	102.8	73.165	79.88315	0.013667737
1758	102.85	72.462	79.26008	0.013800337
1759	102.9	73.458	78.71876	0.013613221
1760	102.95	72.16	78.24646	0.013858093
1761	103	69.029	77.83287	0.014486665
1762	103.05	75.758	77.46954	0.013199926
1763	103.1	73.037	77.14953	0.013691691
1764	103.15	71.456	76.8671	0.013994626
1765	103.2	74.581	76.61743	0.013408241
1766	103.25	72.714	76.39653	0.01375251
1767	103.3	71.015	76.20098	0.014081532
1768	103.35	74.591	76.02793	0.013406443
1769	103.4	74.78	75.87494	0.01337256
1770	103.45	68.642	75.73994	0.01456834
1771	103.5	72.528	75.62112	0.013787779
1772	103.55	74.299	75.51695	0.013459131
1773	103.6	74.517	75.4261	0.013419757
1774	103.65	74.884	75.34742	0.013353988
1775	103.7	71.889	75.27995	0.013910334
1776	103.75	72.776	75.22281	0.013740794
1777	103.8	74.745	75.17528	0.013378821
1778	103.85	71.52	75.13672	0.013982103
1779	103.9	73.315	75.10658	0.013639774
1780	103.95	74.824	75.08439	0.013364696
1781	104	74.115	75.06976	0.013492545
1782	104.05	73.593	75.06233	0.013588249
1783	104.1	76.314	75.06184	0.013103756
1784	104.15	73.515	75.06805	0.013602666
1785	104.2	73.835	75.08076	0.013543712
1786	104.25	74.578	75.09985	0.01340878
1787	104.3	71.312	75.12522	0.014022885
1788	104.35	74.778	75.15679	0.013372917
1789	104.4	70.725	75.19455	0.014139272
1790	104.45	71.765	75.23852	0.013934369
1791	104.5	75.011	75.28874	0.013331378
1792	104.55	71.208	75.3453	0.014043366
1793	104.6	70.846	75.40832	0.014115123
1794	104.65	80.985	75.47795	0.012347966
1795	104.7	78.641	75.55441	0.012716013
1796	104.75	80.751	75.63793	0.012383748
1797	104.8	74.838	75.7288	0.013362196
1798	104.85	78.179	75.82734	0.012791159
1799	104.9	78.722	75.93394	0.012702929
1800	104.95	76.377	76.04904	0.013092947
1801	105	72.992	76.17313	0.013700132
1802	105.05	76.176	76.30678	0.013127494
1803	105.1	73.384	76.45061	0.013626949
1804	105.15	78.516	76.60535	0.012736258
1805	105.2	75.17	76.77181	0.013303179
1806	105.25	74.95	76.9509	0.013342228
1807	105.3	81.904	77.14364	0.012209416
1808	105.35	77.428	77.3512	0.012915224
1809	105.4	72.368	77.57489	0.013818262
1810	105.45	75.009	77.81619	0.013331734
1811	105.5	83.899	78.07678	0.011919093
1812	105.55	75.475	78.35858	0.01324942
1813	105.6	69.384	78.66376	0.014412545
1814	105.65	77.439	78.99481	0.01291339
1815	105.7	76.867	79.35458	0.013009484
1816	105.75	77.76	79.74633	0.012860082
1817	105.8	78.379	80.17385	0.01275852
1818	105.85	79.018	80.64149	0.012655344
1819	105.9	80.257	81.13721	0.012459972
1820	105.95	79.572	81.70126	0.012567235
1821	106	79.749	82.32336	0.012539342
1822	106.05	77.958	83.01169	0.01282742
1823	106.1	85.853	83.77589	0.011647817
1824	106.15	81.686	84.6275	0.012242
1825	106.2	83.262	85.58027	0.012010281
1826	106.25	88.12	86.65081	0.011348162
1827	106.3	95.033	87.85924	0.010522661
1828	106.35	97.645	89.23014	0.01024118
1829	106.4	99.322	90.79379	0.010068263
1830	106.45	109.462	92.58772	0.00913559
1831	106.5	121.545	94.65895	0.008227405
1832	106.55	130.783	97.06693	0.007646254
1833	106.6	139.118	99.88769	0.007188142
1834	106.65	138.022	103.21969	0.007245222
1835	106.7	148.117	107.19243	0.006751419
1836	106.75	155.087	111.97926	0.006447994
1837	106.8	158.695	117.81664	0.006301396
1838	106.85	158.92	125.03284	0.006292474
1839	106.9	163.27	134.0334	0.006124824
1840	106.95	165.605	145.57998	0.006038465
1841	107	180.108	160.52476	0.005552224
1842	107.05	192.575	180.10977	0.005192782
1843	107.1	215.793	205.96974	0.004634071
1844	107.15	246.458	240.10568	0.004057486
1845	107.2	282.967	284.57285	0.003533981
1846	107.25	322.308	340.37706	0.003102622
1847	107.3	359.119	404.7121	0.002784592
1848	107.35	384.427	466.56861	0.002601274
1849	107.4	395.189	505.69682	0.002530435
1850	107.45	391.399	504.01014	0.002554938
1851	107.5	364.501	462.61873	0.002743477
1852	107.55	333.012	400.38991	0.003002895
1853	107.6	293.915	336.72457	0.003402344
1854	107.65	252.694	281.8217	0.003957356
1855	107.7	217.385	238.16571	0.004600133
1856	107.75	190.69	204.68403	0.005244113
1857	107.8	168.631	179.33408	0.005930108
1858	107.85	145.418	160.14415	0.006876728
1859	107.9	133.819	145.50806	0.00747278
1860	107.95	121.37	134.20746	0.008239268
1861	108	112.252	125.35245	0.008908527
1862	108.05	106.033	118.30639	0.009431026
1863	108.1	100.69	112.61743	0.009931473
1864	108.15	97.676	107.96375	0.010237929
1865	108.2	104.608	104.11332	0.009559498
1866	108.25	97.27	100.89586	0.010280662
1867	108.3	95.004	98.18407	0.010525873
1868	108.35	96.721	95.8811	0.010339016
1869	108.4	98.939	93.91215	0.010107238
1870	108.45	98.035	92.21871	0.010200439
1871	108.5	112.395	90.75451	0.008897193
1872	108.55	119.334	89.4826	0.008379841
1873	108.6	123.483	88.37323	0.008098281
1874	108.65	135.69	87.40226	0.00736974
1875	108.7	138.395	86.54994	0.007225695
1876	108.75	141.764	85.8	0.007053977
1877	108.8	138.181	85.139	0.007236885
1878	108.85	131.098	84.55572	0.007627881
1879	108.9	120.78	84.0408	0.008279516
1880	108.95	107.52	83.58635	0.009300595
1881	109	99.512	83.18575	0.010049039
1882	109.05	91.194	82.83337	0.010965634
1883	109.1	90.585	82.52447	0.011039355
1884	109.15	90.012	82.25501	0.01110963
1885	109.2	87.332	82.0216	0.011450556
1886	109.25	84.258	81.82134	0.011868309
1887	109.3	78.309	81.65181	0.012769924
1888	109.35	80.699	81.51099	0.012391727
1889	109.4	86.284	81.39721	0.011589634
1890	109.45	89.229	81.30912	0.011207119
1891	109.5	88.325	81.24565	0.011321823
1892	109.55	89.171	81.20603	0.011214408
1893	109.6	90.566	81.18971	0.011041671
1894	109.65	89.482	81.19641	0.011175432
1895	109.7	87.917	81.2261	0.011374364
1896	109.75	86.669	81.27896	0.011538151
1897	109.8	89.438	81.35547	0.01118093
1898	109.85	84.197	81.45637	0.011876908
1899	109.9	86.125	81.58268	0.01161103
1900	109.95	88.459	81.73578	0.011304672
1901	110	82.587	81.91741	0.012108443
1902	110.05	82.957	82.12976	0.012054438
1903	110.1	82.865	82.37551	0.012067821
1904	110.15	77.625	82.65796	0.012882448
1905	110.2	79.108	82.98115	0.012640947
1906	110.25	79.395	83.35002	0.012595252
1907	110.3	77.082	83.77061	0.012973197
1908	110.35	75.351	84.2406	0.013271224
1909	110.4	76.981	84.78742	0.012990218
1910	110.45	80.965	85.41564	0.012351016
1911	110.5	78.35	86.13842	0.012763242
1912	110.55	78.589	86.9744	0.012724427
1913	110.6	79.393	87.94779	0.012595569
1914	110.65	78.361	89.09049	0.01276145
1915	110.7	82.233	90.44514	0.012160568
1916	110.75	79.65	92.06736	0.012554928
1917	110.8	83.268	94.03901	0.012009415
1918	110.85	89.884	96.4644	0.011125451
1919	110.9	92.402	99.484	0.010822277
1920	110.95	96.167	103.28009	0.010398577
1921	111	101.119	108.07614	0.009889338
1922	111.05	109.301	114.11529	0.009149047
1923	111.1	127.607	121.58453	0.007836561
1924	111.15	140.004	130.43271	0.007142653
1925	111.2	155.165	140.05595	0.006444752
1926	111.25	165.802	149.10253	0.00603129
1927	111.3	180.476	155.60422	0.005540903
1928	111.35	177.871	157.90555	0.005622052
1929	111.4	173.688	155.79785	0.00575745
1930	111.45	178.894	150.83384	0.005589902
1931	111.5	169.99	145.27749	0.005882699
1932	111.55	161.958	140.8791	0.00617444
1933	111.6	166.05	138.54008	0.006022282
1934	111.65	169.483	138.60944	0.005900297
1935	111.7	177.517	141.24622	0.005633263
1936	111.75	189.616	146.63732	0.005273817
1937	111.8	195.336	155.08466	0.005119384
1938	111.85	208.797	166.9942	0.004789341
1939	111.9	217.807	182.73486	0.004591221
1940	111.95	235.01	202.24697	0.004255138
1941	112	241.727	224.25582	0.004136898
1942	112.05	247.635	245.42015	0.004038201
1943	112.1	251.744	260.63401	0.003972289
1944	112.15	260.119	266.1559	0.003844394
1945	112.2	255.206	263.07658	0.003918403
1946	112.25	257.558	256.61713	0.003882621
1947	112.3	256.299	252.49933	0.003901693
1948	112.35	258.388	254.60872	0.003870149
1949	112.4	277.207	264.81451	0.003607413
1950	112.45	288.109	283.28579	0.003470909
1951	112.5	306.642	308.03391	0.003261132
1952	112.55	331.467	333.70119	0.003016892
1953	112.6	346.801	351.50048	0.002883498
1954	112.65	334.262	353.18817	0.002991665
1955	112.7	324.391	337.2374	0.0030827
1956	112.75	305.865	309.69966	0.003269416
1957	112.8	263.729	278.61105	0.003791771
1958	112.85	238.231	249.05629	0.004197607
1959	112.9	211.168	222.63291	0.004735566
1960	112.95	185.751	199.36422	0.005383551
1961	113	171.23	179.19741	0.005840098
1962	113.05	147.223	162.19773	0.006792417
1963	113.1	131.121	148.26169	0.007626543
1964	113.15	121.322	137.04305	0.008242528
1965	113.2	116.402	128.07455	0.008590918
1966	113.25	106.225	120.89405	0.00941398
1967	113.3	99.049	115.10692	0.010096013
1968	113.35	97.965	110.39958	0.010207727
1969	113.4	101.996	106.53111	0.009804306
1970	113.45	108.5	103.31917	0.00921659
1971	113.5	113.768	100.62612	0.008789818
1972	113.55	117.621	98.34778	0.008501883
1973	113.6	122.397	96.40476	0.008170135
1974	113.65	114.802	94.73598	0.00871065
1975	113.7	115.097	93.29392	0.008688324
1976	113.75	111.696	92.0412	0.008952872
1977	113.8	111.943	90.94804	0.008933118
1978	113.85	100.25	89.99045	0.009975062
1979	113.9	99.086	89.149	0.010092243
1980	113.95	89.447	88.40774	0.011179805
1981	114	88.073	87.75355	0.011354218
1982	114.05	80.933	87.17551	0.012355899
1983	114.1	81.138	86.66452	0.012324681
1984	114.15	80.696	86.21296	0.012392188
1985	114.2	86.301	85.81439	0.011587351
1986	114.25	80.983	85.4634	0.012348271
1987	114.3	82.344	85.15539	0.012144176
1988	114.35	78.049	84.88647	0.012812464
1989	114.4	77.27	84.65335	0.012941633
1990	114.45	84.655	84.45323	0.011812651
1991	114.5	84.679	84.28378	0.011809303
1992	114.55	74.045	84.14303	0.013505301
1993	114.6	73.337	84.02935	0.013635682
1994	114.65	77.894	83.9414	0.012837959
1995	114.7	78.049	83.87814	0.012812464
1996	114.75	77.544	83.83877	0.012895904
1997	114.8	76.324	83.8227	0.013102039
1998	114.85	82.569	83.8296	0.012111083
1999	114.9	85.648	83.85934	0.011675696
2000	114.95	82.228	83.91199	0.012161308
2001	115	88.102	83.98785	0.01135048
2002	115.05	85.189	84.08744	0.011738605
2003	115.1	89.925	84.21152	0.011120378
2004	115.15	87.927	84.36108	0.011373071
2005	115.2	88.427	84.5374	0.011308763
2006	115.25	87.406	84.74207	0.011440862
2007	115.3	90.678	84.97699	0.011028033
2008	115.35	88.388	85.24446	0.011313753
2009	115.4	87.678	85.54723	0.01140537
2010	115.45	87.219	85.88855	0.011465392
2011	115.5	88.788	86.2723	0.011262783
2012	115.55	90.614	86.70304	0.011035822
2013	115.6	92.397	87.18618	0.010822862
2014	115.65	93.838	87.72818	0.010656664
2015	115.7	90.104	88.33673	0.011098286
2016	115.75	90.949	89.02105	0.010995173
2017	115.8	88.858	89.79221	0.011253911
2018	115.85	86.06	90.66366	0.0116198
2019	115.9	90.318	91.65178	0.01107199
2020	115.95	90.341	92.77673	0.011069171
2021	116	96.038	94.06357	0.010412545
2022	116.05	102.92	95.52779	0.009716284
2023	116.1	102.115	97.23812	0.009792881
2024	116.15	105.194	99.23809	0.009506246
2025	116.2	106.048	101.59231	0.009429692
2026	116.25	110.074	104.39125	0.009084797
2027	116.3	118.258	107.75499	0.008456088
2028	116.35	122.607	111.84211	0.008156141
2029	116.4	129.678	116.85956	0.007711408
2030	116.45	136.927	123.0719	0.007303162
2031	116.5	150.818	130.8074	0.006630508
2032	116.55	164.013	140.45454	0.006097078
2033	116.6	177.4	152.43432	0.005636979
2034	116.65	187.63	167.11446	0.005329638
2035	116.7	198.668	184.5999	0.005033523
2036	116.75	217.982	204.31698	0.004587535
2037	116.8	229.334	224.40869	0.004360452
2038	116.85	241.172	241.47769	0.004146418
2039	116.9	249.532	251.44689	0.004007502
2040	116.95	246.268	251.97187	0.004060617
2041	117	231.101	244.18873	0.004327112
2042	117.05	236.096	231.87689	0.004235565
2043	117.1	226.245	219.14936	0.004419987
2044	117.15	212.651	208.93422	0.004702541
2045	117.2	214.546	202.78626	0.004661005
2046	117.25	209.835	201.366	0.004765649
2047	117.3	208.328	204.83476	0.004800123
2048	117.35	210.517	213.01433	0.00475021
2049	117.4	222.737	225.25754	0.0044896
2050	117.45	228.379	239.98624	0.004378686
2051	117.5	239.394	254.3226	0.004177214
2052	117.55	243.928	264.4949	0.00409957
2053	117.6	248.412	267.56935	0.00402557
2054	117.65	252.314	263.38505	0.003963316
2055	117.7	251.165	254.60806	0.003981446
2056	117.75	245.818	244.86449	0.00406805
2057	117.8	232.885	236.83677	0.004293965
2058	117.85	235.73	231.41028	0.004242141
2059	117.9	228.31	227.68322	0.00438001
2060	117.95	231.356	223.57891	0.004322343
2061	118	229.405	217.03094	0.004359103
2062	118.05	216.908	207.18488	0.00461025
2063	118.1	205.886	194.65243	0.004857057
2064	118.15	196.295	180.82266	0.005094373
2065	118.2	174.15	167.0852	0.005742176
2066	118.25	159.728	154.43022	0.006260643
2067	118.3	140.518	143.37235	0.007116526
2068	118.35	132.348	134.04357	0.007555838
2069	118.4	130.128	126.34002	0.007684741
2070	118.45	127.053	120.04957	0.007870731
2071	118.5	120.887	114.93389	0.008272188
2072	118.55	114.396	110.77022	0.008741564
2073	118.6	115.727	107.36763	0.008641026
2074	118.65	116.238	104.57012	0.008603039
2075	118.7	122.42	102.25386	0.0081686
2076	118.75	123.002	100.32237	0.008129949
2077	118.8	122.056	98.7013	0.008192961
2078	118.85	113.504	97.33354	0.008810262
2079	118.9	112.66	96.17522	0.008876265
2080	118.95	103.45	95.19244	0.009666506
2081	119	99.065	94.35879	0.010094382
2082	119.05	100.304	93.65349	0.009969692
2083	119.1	96.252	93.06009	0.010389395
2084	119.15	98.962	92.56549	0.010104889
2085	119.2	95.904	92.15922	0.010427094
2086	119.25	90.065	91.83295	0.011103092
2087	119.3	91.369	91.58012	0.010944631
2088	119.35	90.734	91.39566	0.011021227
2089	119.4	88.516	91.27577	0.011297393
2090	119.45	90.401	91.21781	0.011061825
2091	119.5	89.341	91.22018	0.011193069
2092	119.55	91.295	91.28231	0.010953502
2093	119.6	90.255	91.4046	0.011079719
2094	119.65	92.647	91.58849	0.010793658
2095	119.7	101.071	91.83654	0.009894035
2096	119.75	98.515	92.15251	0.010150738
2097	119.8	95.402	92.54164	0.010481961
2098	119.85	94.39	93.01093	0.010594343
2099	119.9	99.972	93.56954	0.010002801
2100	119.95	100.609	94.2294	0.009939469
2101	120	98.15	95.00589	0.010188487
2102	120.05	95.172	95.91878	0.010507292
2103	120.1	93.057	96.99328	0.010746102
2104	120.15	94.381	98.26136	0.010595353
2105	120.2	93.182	99.76245	0.010731686
2106	120.25	90.844	101.54498	0.011007882
2107	120.3	96.77	103.66678	0.010333781
2108	120.35	103.349	106.19451	0.009675952
2109	120.4	106.532	109.1992	0.009386851
2110	120.45	105.882	112.74689	0.009444476
2111	120.5	106.721	116.87997	0.009370227
2112	120.55	109.026	121.5711	0.009172124
2113	120.6	119.483	126.69022	0.008369391
2114	120.65	128.352	132.00462	0.007791075
2115	120.7	132.171	137.28146	0.007565956
2116	120.75	136.846	142.46886	0.007307484
2117	120.8	144.17	147.80021	0.006936256
2118	120.85	152.576	153.69297	0.006554111
2119	120.9	163.058	160.4986	0.006132787
2120	120.95	172.263	168.23822	0.005805077
2121	121	183.412	176.40443	0.005452206
2122	121.05	189.757	183.92605	0.005269898
2123	121.1	198.851	189.47172	0.005028891
2124	121.15	198.252	192.11784	0.005044085
2125	121.2	199.808	191.95029	0.005004805
2126	121.25	192.316	190.05741	0.005199775
2127	121.3	192.828	187.97332	0.005185969
2128	121.35	190.416	187.11024	0.00525166
2129	121.4	189.665	188.50261	0.005272454
2130	121.45	198.814	192.83064	0.005029827
2131	121.5	207.692	200.52907	0.004814822
2132	121.55	219.751	211.85847	0.004550605
2133	121.6	231.097	226.91463	0.004327187
2134	121.65	248.25	245.38977	0.004028197
2135	121.7	274.827	266.35874	0.003638653
2136	121.75	294.33	288.04502	0.003397547
2137	121.8	316.445	307.98969	0.003160107
2138	121.85	323.78	323.85591	0.003088517
2139	121.9	321.212	334.42809	0.003113209
2140	121.95	332.698	339.80491	0.003005729
2141	122	343.62	340.51107	0.002910191
2142	122.05	337.656	336.54569	0.002961594
2143	122.1	352.34	327.46763	0.002838168
2144	122.15	336.278	313.38162	0.00297373
2145	122.2	303.411	295.64269	0.003295859
2146	122.25	285.162	276.53557	0.003506779
2147	122.3	269.172	258.38645	0.003715097
2148	122.35	245.153	242.89684	0.004079085
2149	122.4	224.101	230.95618	0.004462274
2150	122.45	213.69	222.74227	0.004679676
2151	122.5	214.362	217.84355	0.004665006
2152	122.55	203.398	215.32238	0.004916469
2153	122.6	208.504	213.76461	0.004796071
2154	122.65	208.586	211.51831	0.004794186
2155	122.7	204.542	207.22332	0.004888971
2156	122.75	202.166	200.37228	0.00494643
2157	122.8	187.728	191.44213	0.005326856
2158	122.85	180.994	181.50115	0.005525045
2159	122.9	180.141	171.66659	0.005551207
2160	122.95	173.998	162.77052	0.005747192
2161	123	172.384	155.29196	0.005801002
2162	123.05	168.603	149.43681	0.005931093
2163	123.1	161.692	145.24761	0.006184598
2164	123.15	158.29	142.68551	0.006317518
2165	123.2	156.742	141.67148	0.006379911
2166	123.25	162.554	142.08996	0.006151802
2167	123.3	157.807	143.75701	0.006336855
2168	123.35	165.29	146.35487	0.006049973
2169	123.4	170.389	149.35163	0.005868923
2170	123.45	172.981	151.96964	0.005780982
2171	123.5	179.613	153.3058	0.005567526
2172	123.55	176.109	152.63957	0.005678302
2173	123.6	167.221	149.76012	0.00598011
2174	123.65	156.45	145.04147	0.006391818
2175	123.7	147.863	139.20998	0.006763017
2176	123.75	140.099	133.01755	0.00713781
2177	123.8	125.386	127.03136	0.007975372
2178	123.85	117.952	121.58277	0.008478025
2179	123.9	117.311	116.8115	0.00852435
2180	123.95	110.935	112.73479	0.009014288
2181	124	107.205	109.30488	0.009327923
2182	124.05	107.855	106.44605	0.009271707
2183	124.1	103.076	104.07536	0.009701579
2184	124.15	106.029	102.11322	0.009431382
2185	124.2	109.143	100.48825	0.009162292
2186	124.25	112.553	99.13914	0.008884703
2187	124.3	106.741	98.01486	0.009368471
2188	124.35	107.041	97.07399	0.009342215
2189	124.4	104.433	96.28351	0.009575517
2190	124.45	104.011	95.61748	0.009614368
2191	124.5	100.536	95.05563	0.009946686
2192	124.55	99.942	94.58218	0.010005803
2193	124.6	100.285	94.18478	0.009971581
2194	124.65	95.221	93.8537	0.010501885
2195	124.7	94.12	93.58123	0.010624734
2196	124.75	94.895	93.36116	0.010537963
2197	124.8	97.193	93.18847	0.010288807
2198	124.85	95.957	93.05908	0.010421335
2199	124.9	95.285	92.96966	0.010494831
2200	124.95	94.971	92.91749	0.01052953
2201	125	94.82	92.90038	0.010546298
2202	125.05	97.473	92.91657	0.010259251
2203	125.1	100.147	92.96466	0.009985322
2204	125.15	99.384	93.04362	0.010061982
2205	125.2	93.349	93.15268	0.010712488
2206	125.25	96.848	93.29136	0.010325458
2207	125.3	104.642	93.45942	0.009556392
2208	125.35	108.13	93.65685	0.009248127
2209	125.4	112.341	93.88386	0.00890147
2210	125.45	109.824	94.14088	0.009105478
2211	125.5	110.58	94.42855	0.009043227
2212	125.55	105.014	94.74771	0.00952254
2213	125.6	103.538	95.09945	0.00965829
2214	125.65	98.714	95.48506	0.010130275
2215	125.7	99.687	95.90609	0.010031398
2216	125.75	100	96.36433	0.01
2217	125.8	100.391	96.86185	0.009961052
2218	125.85	103.693	97.40102	0.009643853
2219	125.9	96.23	97.98456	0.01039177
2220	125.95	96.176	98.61552	0.010397604
2221	126	96.393	99.29739	0.010374197
2222	126.05	94.259	100.0341	0.010609067
2223	126.1	96.048	100.8301	0.010411461
2224	126.15	97.538	101.69044	0.010252414
2225	126.2	101.917	102.62082	0.009811906
2226	126.25	102.23	103.62771	0.009781864
2227	126.3	104.725	104.71847	0.009548818
2228	126.35	103.571	105.90146	0.009655212
2229	126.4	106.88	107.18624	0.009356287
2230	126.45	102.765	108.58374	0.00973094
2231	126.5	101.699	110.10653	0.009832938
2232	126.55	107.733	111.76908	0.009282207
2233	126.6	113.049	113.58821	0.008845722
2234	126.65	112.558	115.58347	0.008884309
2235	126.7	116.795	117.77787	0.00856201
2236	126.75	122.502	120.19865	0.008163132
2237	126.8	121.244	122.87843	0.008247831
2238	126.85	129.152	125.85671	0.007742815
2239	126.9	130.648	129.18191	0.007654155
2240	126.95	139.335	132.91409	0.007176948
2241	127	145.705	137.12846	0.006863182
2242	127.05	148.536	141.91985	0.006732375
2243	127.1	145.295	147.40813	0.006882549
2244	127.15	142.5	153.74439	0.007017544
2245	127.2	150.684	161.11774	0.006636405
2246	127.25	167.555	169.76184	0.00596819
2247	127.3	167.094	179.96061	0.005984655
2248	127.35	175.049	192.05172	0.005712686
2249	127.4	194.389	206.42671	0.005144324
2250	127.45	213.4	223.52591	0.004686036
2251	127.5	233.956	243.82607	0.004274308
2252	127.55	265.604	267.81643	0.003765004
2253	127.6	302.446	295.95625	0.003306375
2254	127.65	336.647	328.59996	0.002970471
2255	127.7	380.466	365.86783	0.002628356
2256	127.75	443.397	407.43324	0.002255315
2257	127.8	497.644	452.20883	0.002009469
2258	127.85	544.808	497.97323	0.001835509
2259	127.9	588.879	541.11811	0.001698142
2260	127.95	632.297	576.86261	0.001581535
2261	128	655.887	600.25598	0.001524653
2262	128.05	667.725	607.80701	0.001497623
2263	128.1	646.52	598.87513	0.001546743
2264	128.15	628.753	575.87937	0.00159045
2265	128.2	598.48	543.24445	0.0016709
2266	128.25	556.714	505.88039	0.001796254
2267	128.3	500.556	468.02545	0.001997778
2268	128.35	460.774	432.74948	0.002170261
2269	128.4	410.008	401.97504	0.002438977
2270	128.45	374.714	376.74619	0.002668702
2271	128.5	341.188	357.53925	0.002930935
2272	128.55	329.086	344.51561	0.003038719
2273	128.6	306.388	337.6933	0.003263835
2274	128.65	292.274	337.01225	0.003421447
2275	128.7	290.132	342.52521	0.003446707
2276	128.75	293.452	354.21466	0.003407712
2277	128.8	311.148	372.08274	0.003213905
2278	128.85	328.627	396.07774	0.003042964
2279	128.9	361.621	425.97442	0.002765326
2280	128.95	400.748	461.18417	0.002495334
2281	129	425.61	500.47667	0.002349569
2282	129.05	470.508	541.6448	0.002125362
2283	129.1	516.112	581.24992	0.001937564
2284	129.15	555.243	614.72236	0.001801013
2285	129.2	590.526	637.10914	0.001693406
2286	129.25	599.757	644.4418	0.001667342
2287	129.3	596.813	635.11845	0.001675567
2288	129.35	576.974	610.44573	0.00173318
2289	129.4	555.544	574.0137	0.001800037
2290	129.45	503.373	530.38905	0.001986598
2291	129.5	465.094	483.88981	0.002150103
2292	129.55	419.648	437.87849	0.00238295
2293	129.6	381.465	394.58153	0.002621472
2294	129.65	353.313	355.23364	0.002830352
2295	129.7	331.474	320.34145	0.003016828
2296	129.75	312.116	289.93848	0.003203937
2297	129.8	304.843	263.78083	0.003280377
2298	129.85	299.966	241.47975	0.003333711
2299	129.9	299.884	222.58534	0.003334623
2300	129.95	304.672	206.63755	0.003282218
2301	130	301.696	193.19665	0.003314595
2302	130.05	296.164	181.86078	0.003376508
2303	130.1	290.175	172.27484	0.003446196
2304	130.15	266.216	164.13368	0.003756348
2305	130.2	245.763	157.18099	0.004068961
2306	130.25	224.822	151.20566	0.004447963
2307	130.3	197.785	146.03642	0.005055995
2308	130.35	182.35	141.53594	0.005483959
2309	130.4	168.695	137.59487	0.005927858
2310	130.45	153.189	134.12641	0.006527884
2311	130.5	137.564	131.06162	0.007269344
2312	130.55	139.14	128.34554	0.007187006
2313	130.6	127.91	125.93415	0.007817997
2314	130.65	120.18	123.79201	0.008320852
2315	130.7	114.529	121.8905	0.008731413
2316	130.75	109.518	120.20658	0.009130919
2317	130.8	107.162	118.72184	0.009331666
2318	130.85	107.348	117.42187	0.009315497
2319	130.9	99.225	116.2958	0.010078105
2320	130.95	102.848	115.33599	0.009723086
2321	131	104.472	114.53772	0.009571943
2322	131.05	94.341	113.89899	0.010599845
2323	131.1	100.928	113.42027	0.009908053
2324	131.15	98.794	113.10417	0.010122072
2325	131.2	96.169	112.95507	0.010398361
2326	131.25	99.578	112.9786	0.010042379
2327	131.3	90.717	113.18086	0.011023292
2328	131.35	97.908	113.56741	0.01021367
2329	131.4	107.746	114.14162	0.009281087
2330	131.45	104.21	114.90221	0.009596008
2331	131.5	105.581	115.8395	0.009471401
2332	131.55	105.461	116.93021	0.009482178
2333	131.6	107.355	118.13116	0.00931489
2334	131.65	115.921	119.37386	0.008626565
2335	131.7	120.534	120.56412	0.008296414
2336	131.75	113.841	121.59195	0.008784181
2337	131.8	115.729	122.35407	0.008640877
2338	131.85	122.93	122.78336	0.008134711
2339	131.9	119.719	122.87126	0.008352893
2340	131.95	116.728	122.6709	0.008566925
2341	132	104.176	122.28037	0.00959914
2342	132.05	104.003	121.81671	0.009615107
2343	132.1	104.695	121.39323	0.009551555
2344	132.15	109.308	121.10646	0.009148461
2345	132.2	104.997	121.0327	0.009524082
2346	132.25	100.116	121.23083	0.009988413
2347	132.3	96.956	121.74778	0.010313957
2348	132.35	97.247	122.62436	0.010283094
2349	132.4	101.151	123.90008	0.00988621
2350	132.45	101.436	125.61672	0.009858433
2351	132.5	104.657	127.82056	0.009555023
2352	132.55	105.946	130.56362	0.009438771
2353	132.6	106.353	133.90387	0.00940265
2354	132.65	105.529	137.90447	0.009476068
2355	132.7	110.894	142.63199	0.00901762
2356	132.75	121.79	148.15308	0.008210855
2357	132.8	130.785	154.52902	0.007646137
2358	132.85	138.445	161.80693	0.007223085
2359	132.9	145.455	170.00627	0.006874979
2360	132.95	152.947	179.09864	0.006538213
2361	133	172.451	188.98061	0.005798749
2362	133.05	184.357	199.44405	0.005424258
2363	133.1	198.556	210.1539	0.005036363
2364	133.15	215.902	220.65377	0.004631731
2365	133.2	228.951	230.42104	0.004367747
2366	133.25	242.126	238.97632	0.004130081
2367	133.3	244.586	246.01542	0.004088541
2368	133.35	247.921	251.50113	0.004033543
2369	133.4	259.77	255.66168	0.003849559
2370	133.45	257.891	258.89381	0.003877607
2371	133.5	260.052	261.6194	0.003845385
2372	133.55	256.057	264.1587	0.00390538
2373	133.6	260.225	266.66435	0.003842828
2374	133.65	265.413	269.13038	0.003767713
2375	133.7	276.5	271.46061	0.003616637
2376	133.75	273.029	273.55476	0.003662615
2377	133.8	274.574	275.36185	0.003642005
2378	133.85	281.666	276.87062	0.003550304
2379	133.9	292.726	278.04814	0.003416164
2380	133.95	301.995	278.77211	0.003311313
2381	134	311.089	278.80449	0.003214514
2382	134.05	315.141	277.86011	0.003173183
2383	134.1	313.701	275.70261	0.003187749
2384	134.15	315.966	272.27217	0.003164897
2385	134.2	314.874	267.74134	0.003175874
2386	134.25	302.2	262.48387	0.003309067
2387	134.3	288.436	256.98757	0.003466974
2388	134.35	281.825	251.74364	0.003548301
2389	134.4	263.738	247.15681	0.003791642
2390	134.45	252.691	243.49155	0.003957403
2391	134.5	249.014	240.85315	0.004015838
2392	134.55	238.897	239.19779	0.004185904
2393	134.6	240.378	238.36877	0.004160114
2394	134.65	235.59	238.15691	0.004244662
2395	134.7	227.855	238.37613	0.004388756
2396	134.75	227.678	238.93324	0.004392168
2397	134.8	224.261	239.86584	0.00445909
2398	134.85	220.051	241.33441	0.004544401
2399	134.9	216.592	243.5759	0.004616976
2400	134.95	211.845	246.8395	0.004720432
2401	135	218.281	251.32274	0.004581251
2402	135.05	223.677	257.12404	0.004470732
2403	135.1	221.791	264.20227	0.004508749
2404	135.15	236.803	272.35343	0.004222919
2405	135.2	252.277	281.2001	0.003963897
2406	135.25	270.828	290.20272	0.00369238
2407	135.3	279.146	298.754	0.003582355
2408	135.35	294.815	306.22096	0.003391958
2409	135.4	309.783	312.08178	0.003228066
2410	135.45	316.703	315.99104	0.003157532
2411	135.5	333.383	317.77864	0.002999553
2412	135.55	322.023	317.38704	0.003105368
2413	135.6	331.788	314.79359	0.003013973
2414	135.65	322.882	309.97218	0.003097107
2415	135.7	330.058	302.91848	0.003029771
2416	135.75	315.563	293.71741	0.003168939
2417	135.8	300.226	282.60298	0.003330824
2418	135.85	286.862	269.96871	0.003485997
2419	135.9	272.067	256.3216	0.003675565
2420	135.95	259.326	242.20462	0.00385615
2421	136	241.863	228.10146	0.004134572
2422	136.05	227.485	214.4636	0.004395894
2423	136.1	216.672	201.58029	0.004615271
2424	136.15	209.718	189.64169	0.004768308
2425	136.2	199.319	178.74764	0.005017083
2426	136.25	184.196	168.92734	0.005429
2427	136.3	178.124	160.1596	0.005614067
2428	136.35	170.622	152.39004	0.005860909
2429	136.4	163.87	145.54338	0.006102398
2430	136.45	161.004	139.53908	0.006211026
2431	136.5	146.951	134.28861	0.006804989
2432	136.55	147.127	129.70549	0.006796849
2433	136.6	145.498	125.70756	0.006872947
2434	136.65	132.369	122.21857	0.007554639
2435	136.7	132.355	119.16926	0.007555438
2436	136.75	126.199	116.49782	0.007923993
2437	136.8	129.013	114.14999	0.007751157
2438	136.85	114.589	112.07875	0.008726841
2439	136.9	109.643	110.24388	0.009120509
2440	136.95	111.632	108.61131	0.008958005
2441	137	105.571	107.15243	0.009472298
2442	137.05	98.448	105.84346	0.010157647
2443	137.1	98.58	104.66459	0.010144045
2444	137.15	94.313	103.59921	0.010602992
2445	137.2	98.813	102.6337	0.010120126
2446	137.25	94.776	101.75673	0.010551194
2447	137.3	95.302	100.95889	0.010492959
2448	137.35	97.81	100.23225	0.010223903
2449	137.4	92.037	99.57017	0.010865196
2450	137.45	91.18	98.967	0.010967317
2451	137.5	88.721	98.41794	0.011271289
2452	137.55	91.629	97.9189	0.010913575
2453	137.6	83.82	97.46638	0.011930327
2454	137.65	89.265	97.05738	0.011202599
2455	137.7	86.485	96.68936	0.011562699
2456	137.75	88.26	96.36015	0.011330161
2457	137.8	92.374	96.06795	0.010825557
2458	137.85	82.654	95.8113	0.012098628
2459	137.9	85.971	95.58904	0.011631829
2460	137.95	88.627	95.40032	0.011283243
2461	138	87.819	95.24458	0.011387057
2462	138.05	87.724	95.12159	0.011399389
2463	138.1	87.047	95.03143	0.011488047
2464	138.15	92.408	94.97456	0.010821574
2465	138.2	91.832	94.9518	0.01088945
2466	138.25	89.177	94.96445	0.011213654
2467	138.3	86.516	95.0143	0.011558556
2468	138.35	93.245	95.10376	0.010724436
2469	138.4	92.637	95.23597	0.010794823
2470	138.45	92.812	95.41484	0.010774469
2471	138.5	91.947	95.64526	0.010875831
2472	138.55	94.969	95.93321	0.010529752
2473	138.6	97.902	96.28589	0.010214296
2474	138.65	94.225	96.71187	0.010612895
2475	138.7	97.257	97.22121	0.010282036
2476	138.75	93.787	97.82553	0.010662459
2477	138.8	92.823	98.5381	0.010773192
2478	138.85	93.258	99.37379	0.010722941
2479	138.9	91.774	100.34897	0.010896332
2480	138.95	88.329	101.48138	0.01132131
2481	139	92.619	102.78979	0.010796921
2482	139.05	93.25	104.29359	0.010723861
2483	139.1	91.745	106.01229	0.010899777
2484	139.15	94.464	107.96476	0.010586043
2485	139.2	93.447	110.16833	0.010701253
2486	139.25	94.252	112.63764	0.010609854
2487	139.3	97.216	115.38308	0.010286373
2488	139.35	101.555	118.40874	0.009846881
2489	139.4	105.142	121.70972	0.009510947
2490	139.45	109.308	125.26839	0.009148461
2491	139.5	112.732	129.0498	0.008870596
2492	139.55	123.181	132.99603	0.008118135
2493	139.6	134.806	137.0204	0.007418067
2494	139.65	141.767	141.00274	0.007053828
2495	139.7	146.301	144.78845	0.006835223
2496	139.75	160.714	148.19421	0.006222233
2497	139.8	171.736	151.02305	0.005822891
2498	139.85	175.198	153.0885	0.005707828
2499	139.9	180.684	154.24389	0.005534524
2500	139.95	169.105	154.40841	0.005913486
2501	140	162.164	153.58174	0.006166597
2502	140.05	149.503	151.84217	0.006688829
2503	140.1	151.975	149.32979	0.00658003
2504	140.15	145.194	146.22135	0.006887337
2505	140.2	135.051	142.70441	0.00740461
2506	140.25	125.556	138.95646	0.007964574
2507	140.3	118.322	135.13164	0.008451514
2508	140.35	116.403	131.3546	0.008590844
2509	140.4	112.832	127.7199	0.008862734
2510	140.45	106.817	124.29481	0.009361806
2511	140.5	107.016	121.12381	0.009344397
2512	140.55	99.352	118.23333	0.010065223
2513	140.6	101.884	115.63622	0.009815084
2514	140.65	101.323	113.33551	0.009869427
2515	140.7	96.966	111.32738	0.010312893
2516	140.75	97.153	109.60355	0.010293043
2517	140.8	95.935	108.15304	0.010423724
2518	140.85	95.554	106.96364	0.010465287
2519	140.9	95.355	106.02296	0.010487127
2520	140.95	97.192	105.31931	0.010288913
2521	141	97.955	104.84234	0.010208769
2522	141.05	98.37	104.58346	0.010165701
2523	141.1	98.355	104.53621	0.010167251
2524	141.15	101.389	104.69634	0.009863003
2525	141.2	103.753	105.06186	0.009638276
2526	141.25	104.968	105.6329	0.009526713
2527	141.3	103.918	106.41145	0.009622972
2528	141.35	108.393	107.40102	0.009225688
2529	141.4	107.685	108.60614	0.009286344
2530	141.45	110.784	110.03178	0.009026574
2531	141.5	115.614	111.68253	0.008649472
2532	141.55	119.144	113.56168	0.008393205
2533	141.6	124.49	115.66998	0.008032774
2534	141.65	122.155	118.00405	0.008186321
2535	141.7	127.126	120.55449	0.007866211
2536	141.75	133.979	123.30348	0.007463856
2537	141.8	137.402	126.2222	0.007277914
2538	141.85	132.085	129.26834	0.007570882
2539	141.9	140.12	132.38423	0.00713674
2540	141.95	144.695	135.49676	0.006911089
2541	142	153.366	138.51994	0.00652035
2542	142.05	156.87	141.361	0.006374705
2543	142.1	161.757	143.9298	0.006182113
2544	142.15	163.879	146.15008	0.006102063
2545	142.2	166.189	147.96968	0.006017245
2546	142.25	164.583	149.36655	0.006075962
2547	142.3	165.792	150.34855	0.006031654
2548	142.35	159.839	150.94687	0.006256295
2549	142.4	161.233	151.20494	0.006202204
2550	142.45	153.063	151.16598	0.006533258
2551	142.5	155.206	150.86235	0.00644305
2552	142.55	158.147	150.30885	0.006323231
2553	142.6	149.575	149.49131	0.006685609
2554	142.65	149.568	148.40793	0.006685922
2555	142.7	152.387	147.02934	0.00656224
2556	142.75	147.021	145.33347	0.006801749
2557	142.8	146.25	143.31281	0.006837607
2558	142.85	141.88	140.98078	0.00704821
2559	142.9	138.402	138.37242	0.007225329
2560	142.95	141.089	135.54093	0.007087725
2561	143	136.942	132.55127	0.007302362
2562	143.05	134.352	129.47268	0.007443134
2563	143.1	125.911	126.37196	0.007942118
2564	143.15	118.992	123.30859	0.008403926
2565	143.2	114.318	120.33186	0.008747529
2566	143.25	111.811	117.47985	0.008943664
2567	143.3	107.814	114.77981	0.009275233
2568	143.35	108.715	112.24933	0.009198363
2569	143.4	103.493	109.8979	0.009662489
2570	143.45	102.722	107.72864	0.009735013
2571	143.5	103.933	105.73972	0.009621583
2572	143.55	95.144	103.92577	0.010510384
2573	143.6	101.786	102.27885	0.009824534
2574	143.65	96.786	100.78938	0.010332073
2575	143.7	105.094	99.4362	0.009515291
2576	143.75	103.444	98.22665	0.009667066
2577	143.8	102.478	97.14309	0.009758192
2578	143.85	101.903	96.17327	0.009813254
2579	143.9	105.162	95.3056	0.009509138
2580	143.95	106.065	94.52965	0.009428181
2581	144	98.662	93.83562	0.010135615
2582	144.05	99.292	93.21444	0.010071305
2583	144.1	99.888	92.65778	0.010011213
2584	144.15	101.816	92.15808	0.009821639
2585	144.2	101.412	91.70853	0.009860766
2586	144.25	104.487	91.30308	0.009570569
2587	144.3	103.251	90.93638	0.009685136
2588	144.35	104.856	90.59809	0.009536889
2589	144.4	105.922	90.29402	0.009440909
2590	144.45	108.602	90.01734	0.009207934
2591	144.5	105.436	89.76444	0.009484427
2592	144.55	107.486	89.53163	0.009303537
2593	144.6	99.674	89.31748	0.010032707
2594	144.65	105.016	89.12017	0.009522358
2595	144.7	104.827	88.93781	0.009539527
2596	144.75	100.891	88.76887	0.009911687
2597	144.8	100.534	88.61209	0.009946884
2598	144.85	100.068	88.46636	0.009993205
2599	144.9	104.081	88.33076	0.009607902
2600	144.95	102.744	88.20443	0.009732928
2601	145	97.855	88.08667	0.010219202



_refine_ls_goodness_of_fit_all
2.05
_journal_year
2009
_journal_page_last
299
_symmetry_space_group_name_H-M
'R 3 c'
_pd_char_colour
white
_cell_angle_beta
90
_pd_spec_mount_mode
reflection
_cell_angle_alpha
90
_diffrn_radiation_monochromator
'Ge [115]'
_chemical_formula_sum
'K0.30 Na0.70 Nb1 O3'
_chemical_formula_structural
'K Na (Nb O3)'
_journal_page_first
291
_chemical_formula_weight
168.73
_pd_proc_info_excluded_regions
'145-160\% 2\q'
_pd_meas_2theta_range_max
160
_diffrn_measurement_device_type
D2B
_symmetry_cell_setting
trigonal
_diffrn_ambient_temperature
180
_journal_coeditor_code
WF5039
_pd_meas_2theta_range_inc
0.05
_pd_spec_size_axial
20
_journal_name_full
'Acta Crystallographica, Section B'
_journal_volume
65
_cell_volume
375.558(17)
_journal_issue
3
_pd_spec_mounting
'Vanadium can packed with powder'
_pd_spec_shape
cylinder
_pd_proc_ls_prof_R_factor
0.085
_diffrn_radiation_wavelength
1.60
_pd_spec_size_equat
50
_pd_block_diffractogram_id
KNN30at180K
_pd_spec_size_thick
20
_pd_meas_scan_method
step
_diffrn_radiation_type
Neutron
_journal_paper_category
FA
_journal_date_accepted
2009-03-25
_pd_proc_ls_prof_wR_factor
0.114
_cell_angle_gamma
120
_refine_ls_number_parameters
24
_computing_structure_refinement
'TOPAS Academic'
_cell_formula_units_Z
6
_cell_length_a
5.59717(10)
_cell_length_b
5.59717(10)
_pd_meas_number_of_points
2601
_cell_length_c
13.8423(4)
_chemical_name_systematic
'Sodium Potassium Niobate'
_pd_proc_ls_prof_wR_expected
0.027
_journal_date_recd_electronic
2008-12-13
_pd_meas_2theta_range_min
0.10
loop_
_symmetry_equiv_pos_as_xyz

;-x+y, -x, z
;

;-x+y, y, z+1/2
;

;-x+y+1/3, -x-1/3, z-1/3
;

;-x+y+1/3, y-1/3, z+1/6
;

;-x+y-1/3, -x+1/3, z+1/3
;

;-x+y-1/3, y+1/3, z-1/6
;

;-y, -x, z+1/2
;

;-y, x-y, z
;

;-y+1/3, -x-1/3, z+1/6
;

;-y+1/3, x-y-1/3, z-1/3
;

;-y-1/3, -x+1/3, z-1/6
;

;-y-1/3, x-y+1/3, z+1/3
;

;x, y, z
;

;x, x-y, z+1/2
;

;x+1/3, y-1/3, z-1/3
;

;x+1/3, x-y-1/3, z+1/6
;

;x-1/3, y+1/3, z+1/3
;

;x-1/3, x-y+1/3, z-1/6
;

loop_
_atom_type_symbol
Na1+
K1+
Nb5+
O2-

loop_
_atom_site_type_symbol
_atom_site_label
_atom_site_fract_x
_atom_site_fract_y
_atom_site_fract_z
_atom_site_occupancy
Na+1 Na1 0 0 0.2660(6) 0.7
K+1 K1 0 0 0.2660(6) 0.3
Nb+5 Nb1 0 0 0.0155(2) 1
O-2 O1 0.1388(4) 0.3370(6) 0.08333 1



# powder data simulated using PLATON:

data_KNN30at180K_simulated_1.60

_publcif_pd_cifplot 'simulated 2021-03-25'

