data_KNN30at200K

_pd_block_id     KNN30at200K
_pd_proc_2theta_range_min  19 
_pd_proc_2theta_range_max 150
_pd_proc_ls_background_function   'Chebychev with six coefficients' 

loop_
      
_pd_data_point_id                           
      
_pd_meas_2theta_corrected     
_pd_meas_intensity_total                     
      
_pd_calc_intensity_total                     
      
_pd_proc_ls_weight
1	19	60.669	62.11158	0.016482883
2	19.05	60.54	62.12109	0.016518005
3	19.1	66.017	62.13067	0.015147613
4	19.15	66.513	62.14033	0.015034655
5	19.2	61.393	62.15009	0.016288502
6	19.25	60.921	62.15994	0.016414701
7	19.3	62.191	62.16992	0.016079497
8	19.35	63.501	62.18002	0.015747783
9	19.4	64.002	62.19027	0.015624512
10	19.45	58.409	62.20068	0.017120649
11	19.5	63.38	62.21127	0.015777848
12	19.55	68.308	62.22205	0.014639574
13	19.6	65.581	62.23304	0.015248319
14	19.65	66.741	62.24426	0.014983294
15	19.7	66.859	62.25574	0.014956849
16	19.75	60.235	62.2675	0.016601644
17	19.8	66.169	62.27956	0.015112817
18	19.85	66.776	62.29195	0.01497544
19	19.9	63.307	62.3047	0.015796042
20	19.95	61.506	62.31784	0.016258576
21	20	62.161	62.33141	0.016087257
22	20.05	60	62.34543	0.016666667
23	20.1	61.445	62.35996	0.016274717
24	20.15	62.538	62.37503	0.015990278
25	20.2	62.383	62.39069	0.016030008
26	20.25	62.216	62.407	0.016073036
27	20.3	62.585	62.42401	0.01597827
28	20.35	66.387	62.44177	0.01506319
29	20.4	63.699	62.46037	0.015698834
30	20.45	57.003	62.47986	0.017542936
31	20.5	61.492	62.50034	0.016262278
32	20.55	60.996	62.52189	0.016394518
33	20.6	60.253	62.54462	0.016596684
34	20.65	60.829	62.56862	0.016439527
35	20.7	60.489	62.59403	0.016531931
36	20.75	60.224	62.62097	0.016604676
37	20.8	64.763	62.6496	0.015440915
38	20.85	67.295	62.68009	0.014859945
39	20.9	64.774	62.71263	0.015438293
40	20.95	67.079	62.74742	0.014907795
41	21	62.529	62.7847	0.015992579
42	21.05	63.257	62.82476	0.015808527
43	21.1	57.351	62.86789	0.017436488
44	21.15	58.499	62.91446	0.017094309
45	21.2	57.622	62.96485	0.017354483
46	21.25	62.353	63.01954	0.016037721
47	21.3	64.091	63.07907	0.015602815
48	21.35	73.352	63.14405	0.013632893
49	21.4	76.626	63.21521	0.013050401
50	21.45	66.585	63.29341	0.015018398
51	21.5	63.071	63.37966	0.015855147
52	21.55	70.815	63.47521	0.014121302
53	21.6	70.286	63.58153	0.014227584
54	21.65	65.071	63.7002	0.015367829
55	21.7	68.637	63.83377	0.014569401
56	21.75	68.095	63.98612	0.014685366
57	21.8	68.075	64.16342	0.01468968
58	21.85	72.099	64.37818	0.013869818
59	21.9	73.803	64.65498	0.013549585
60	21.95	75.711	65.04062	0.01320812
61	22	76.164	65.61865	0.013129563
62	22.05	77.092	66.52562	0.012971515
63	22.1	73.481	67.96354	0.01360896
64	22.15	78.96	70.20121	0.01266464
65	22.2	86.92	73.55879	0.011504832
66	22.25	91.942	78.37641	0.010876422
67	22.3	96.003	84.97691	0.010416341
68	22.35	99.684	93.64188	0.0100317
69	22.4	114.802	104.62111	0.00871065
70	22.45	114.829	118.17897	0.008708601
71	22.5	129.697	134.6643	0.007710279
72	22.55	132.847	154.59181	0.007527456
73	22.6	137.881	178.73318	0.007252631
74	22.65	167.183	208.21612	0.005981469
75	22.7	197.779	244.59781	0.005056149
76	22.75	226.766	289.80125	0.004409832
77	22.8	275.139	345.71397	0.003634527
78	22.85	336.027	413.25832	0.002975951
79	22.9	405.943	490.97634	0.0024634
80	22.95	491.521	573.63749	0.002034501
81	23	590.772	651.81463	0.0016927
82	23.05	651.736	713.31809	0.001534364
83	23.1	722.266	746.62889	0.001384531
84	23.15	750.161	745.45479	0.001333047
85	23.2	722.568	712.29915	0.001383953
86	23.25	685.772	657.58365	0.001458211
87	23.3	631.393	593.68282	0.0015838
88	23.35	588.085	528.9296	0.001700434
89	23.4	555.587	465.69948	0.001799898
90	23.45	501.295	402.52859	0.001994833
91	23.5	426.292	338.24346	0.00234581
92	23.55	358.608	274.73227	0.00278856
93	23.6	286.188	216.22092	0.003494207
94	23.65	228.59	166.88635	0.004374645
95	23.7	185.006	129.09841	0.00540523
96	23.75	147.625	102.85678	0.00677392
97	23.8	129.904	86.28917	0.007697992
98	23.85	108.052	76.69565	0.009254803
99	23.9	96.936	71.50475	0.010316085
100	23.95	85.51	68.78518	0.011694539
101	24	77.953	67.32235	0.012828243
102	24.05	71.542	66.45621	0.013977803
103	24.1	63.508	65.86927	0.015746048
104	24.15	67.801	65.42228	0.014749045
105	24.2	68.274	65.05669	0.014646864
106	24.25	69.931	64.74675	0.01429981
107	24.3	59.611	64.47927	0.016775427
108	24.35	61.674	64.246	0.016214288
109	24.4	63.602	64.04102	0.015722776
110	24.45	60.77	63.85973	0.016455488
111	24.5	66.859	63.69847	0.014956849
112	24.55	66.544	63.55425	0.015027651
113	24.6	59.995	63.42464	0.016668056
114	24.65	59.502	63.30761	0.016806158
115	24.7	61.521	63.20149	0.016254612
116	24.75	63.099	63.10487	0.015848112
117	24.8	60.724	63.01656	0.016467953
118	24.85	56.809	62.93556	0.017602845
119	24.9	61.662	62.86101	0.016217443
120	24.95	57.776	62.79218	0.017308225
121	25	52.683	62.72842	0.018981455
122	25.05	57.843	62.66919	0.017288177
123	25.1	60.982	62.61404	0.016398281
124	25.15	65.108	62.56263	0.015359096
125	25.2	62.439	62.51461	0.016015631
126	25.25	60.465	62.4697	0.016538493
127	25.3	57.792	62.42771	0.017303433
128	25.35	58.463	62.38852	0.017104836
129	25.4	57.735	62.3521	0.017320516
130	25.45	54.137	62.31867	0.018471655
131	25.5	55.064	62.29043	0.018160686
132	25.55	53.969	62.26177	0.018529156
133	25.6	65.435	62.23232	0.015282341
134	25.65	61.178	62.2053	0.016345745
135	25.7	59.445	62.18378	0.016822273
136	25.75	60.017	62.15689	0.016661946
137	25.8	62.667	62.13111	0.015957362
138	25.85	55.503	62.10634	0.018017044
139	25.9	58.704	62.08251	0.017034614
140	25.95	59.659	62.05955	0.01676193
141	26	56.791	62.0374	0.017608424
142	26.05	59.815	62.016	0.016718214
143	26.1	59.691	61.99529	0.016752944
144	26.15	63.867	61.97523	0.015657538
145	26.2	59.869	61.95578	0.016703135
146	26.25	60.876	61.93689	0.016426835
147	26.3	59.928	61.91853	0.016686691
148	26.35	59.119	61.90066	0.016915036
149	26.4	58.327	61.88326	0.017144719
150	26.45	61.739	61.86628	0.016197217
151	26.5	66.912	61.84971	0.014945002
152	26.55	62.124	61.83353	0.016096839
153	26.6	62.742	61.8177	0.015938287
154	26.65	57.232	61.8022	0.017472743
155	26.7	53.52	61.78703	0.018684604
156	26.75	60.854	61.77216	0.016432774
157	26.8	58.338	61.75757	0.017141486
158	26.85	60.988	61.74324	0.016396668
159	26.9	61.898	61.72917	0.016155611
160	26.95	61.346	61.71534	0.016300981
161	27	63.491	61.70174	0.015750264
162	27.05	56.722	61.68835	0.017629844
163	27.1	54.876	61.67517	0.018222903
164	27.15	57.008	61.66219	0.017541398
165	27.2	59.326	61.64939	0.016856016
166	27.25	64.82	61.63677	0.015427337
167	27.3	64.316	61.62432	0.015548231
168	27.35	62.173	61.61204	0.016084152
169	27.4	57.674	61.59991	0.017338836
170	27.45	60.714	61.58793	0.016470666
171	27.5	63.142	61.5761	0.015837319
172	27.55	59.341	61.56442	0.016851755
173	27.6	57.41	61.55287	0.017418568
174	27.65	59.556	61.54146	0.016790919
175	27.7	61.912	61.5302	0.016151958
176	27.75	57.606	61.5191	0.017359303
177	27.8	59.838	61.50819	0.016711788
178	27.85	65.563	61.49749	0.015252505
179	27.9	58.018	61.48707	0.01723603
180	27.95	61.067	61.47699	0.016375456
181	28	61.214	61.46731	0.016336132
182	28.05	60.696	61.45811	0.01647555
183	28.1	55.454	61.44946	0.018032964
184	28.15	58.381	61.44145	0.01712886
185	28.2	61.262	61.43419	0.016323333
186	28.25	56.965	61.42784	0.017554639
187	28.3	55.418	61.42262	0.018044679
188	28.35	58.88	61.41872	0.016983696
189	28.4	64.268	61.41624	0.015559843
190	28.45	56.509	61.41496	0.017696296
191	28.5	63.411	61.41419	0.015770135
192	28.55	62.141	61.4127	0.016092435
193	28.6	62.034	61.40886	0.016120192
194	28.65	57.419	61.40112	0.017415838
195	28.7	55.552	61.38862	0.018001152
196	28.75	60.554	61.37176	0.016514186
197	28.8	60.885	61.35215	0.016424407
198	28.85	58.13	61.33194	0.017202821
199	28.9	59.96	61.31298	0.016677785
200	28.95	60.467	61.29641	0.016537946
201	29	64.816	61.28274	0.015428289
202	29.05	60.074	61.27114	0.016646136
203	29.1	58.405	61.26111	0.017121822
204	29.15	62.603	61.25241	0.015973675
205	29.2	66.596	61.24391	0.015015917
206	29.25	58.942	61.23577	0.016965831
207	29.3	54.6	61.22791	0.018315018
208	29.35	58.493	61.22027	0.017096063
209	29.4	61.294	61.21283	0.016314811
210	29.45	60.291	61.20557	0.016586223
211	29.5	62.579	61.19851	0.015979802
212	29.55	61.527	61.19165	0.016253027
213	29.6	61.59	61.18499	0.016236402
214	29.65	63.544	61.17855	0.015737127
215	29.7	58.221	61.17234	0.017175933
216	29.75	65.436	61.16637	0.015282108
217	29.8	62.316	61.16065	0.016047243
218	29.85	58.636	61.1552	0.017054369
219	29.9	62.321	61.15003	0.016045956
220	29.95	62.943	61.14516	0.01588739
221	30	57.451	61.14061	0.017406137
222	30.05	59.421	61.1364	0.016829067
223	30.1	58.21	61.13255	0.017179179
224	30.15	60.956	61.12909	0.016405276
225	30.2	57.259	61.12604	0.017464503
226	30.25	54.585	61.12344	0.018320051
227	30.3	58.719	61.12132	0.017030263
228	30.35	61.204	61.1197	0.016338801
229	30.4	55.349	61.11864	0.018067174
230	30.45	59.137	61.11817	0.016909887
231	30.5	56.074	61.11834	0.017833577
232	30.55	56.844	61.11921	0.017592006
233	30.6	56.04	61.12083	0.017844397
234	30.65	60.771	61.12327	0.016455217
235	30.7	66.093	61.1266	0.015130195
236	30.75	63.978	61.1309	0.015630373
237	30.8	54.887	61.13626	0.01821925
238	30.85	57.931	61.14279	0.017261915
239	30.9	60.479	61.15059	0.016534665
240	30.95	57.251	61.15979	0.017466944
241	31	53.866	61.17055	0.018564586
242	31.05	58.206	61.18302	0.017180359
243	31.1	56.608	61.19739	0.017665348
244	31.15	60.34	61.21388	0.016572754
245	31.2	56.496	61.23273	0.017700368
246	31.25	59.665	61.25423	0.016760245
247	31.3	58.37	61.27871	0.017132088
248	31.35	59.451	61.30655	0.016820575
249	31.4	58.211	61.33819	0.017178884
250	31.45	60.218	61.37416	0.01660633
251	31.5	57.735	61.41509	0.017320516
252	31.55	61.12	61.46171	0.016361257
253	31.6	62.435	61.51493	0.016016657
254	31.65	60.308	61.57581	0.016581548
255	31.7	61.813	61.64573	0.016177827
256	31.75	54.431	61.72647	0.018371884
257	31.8	60.1	61.82059	0.016638935
258	31.85	64.473	61.93233	0.015510369
259	31.9	59.839	62.06904	0.016711509
260	31.95	60.852	62.24405	0.016433314
261	32	64.117	62.48112	0.015596488
262	32.05	62.278	62.82103	0.016057035
263	32.1	54.737	63.32954	0.018269178
264	32.15	64.057	64.11012	0.015611096
265	32.2	62.762	65.27849	0.015933208
266	32.25	64.133	67.01815	0.015592597
267	32.3	64.949	69.55608	0.015396696
268	32.35	69.844	73.20221	0.014317622
269	32.4	76.946	78.35961	0.012996127
270	32.45	84.601	85.5556	0.011820191
271	32.5	86.741	95.42559	0.011528574
272	32.55	88.642	108.61205	0.011281334
273	32.6	105.446	125.56128	0.009483527
274	32.65	127.168	146.26686	0.007863613
275	32.7	145.692	170.09017	0.006863795
276	32.75	169.121	195.80675	0.005912926
277	32.8	201.299	221.91176	0.004967735
278	32.85	229.989	247.08324	0.004348034
279	32.9	243.36	270.57442	0.004109139
280	32.95	279.903	292.00196	0.003572666
281	33	302.845	310.17356	0.003302019
282	33.05	316.498	322.09629	0.003159578
283	33.1	334.77	323.55821	0.002987125
284	33.15	315.642	310.96978	0.003168146
285	33.2	279.863	283.5056	0.003573177
286	33.25	239.582	244.58794	0.004173936
287	33.3	194.218	200.99392	0.005148853
288	33.35	154.156	159.75586	0.006486935
289	33.4	130.117	125.69364	0.007685391
290	33.45	113.838	100.70011	0.008784413
291	33.5	84.818	84.23421	0.01178995
292	33.55	76.093	74.38872	0.013141813
293	33.6	77.112	68.95625	0.01296815
294	33.65	59.331	66.10694	0.016854595
295	33.7	63.244	64.61236	0.015811777
296	33.75	62.107	63.77212	0.016101245
297	33.8	62.799	63.23698	0.01592382
298	33.85	62.093	62.85004	0.016104875
299	33.9	56.818	62.54485	0.017600056
300	33.95	59.076	62.29265	0.016927348
301	34	57.199	62.07931	0.017482823
302	34.05	60.906	61.89643	0.016418744
303	34.1	61.146	61.7382	0.0163543
304	34.15	60.067	61.60027	0.016648076
305	34.2	57.548	61.4792	0.017376798
306	34.25	59.634	61.37231	0.016768957
307	34.3	55.749	61.2774	0.017937541
308	34.35	56.372	61.19272	0.017739303
309	34.4	64.046	61.11683	0.015613778
310	34.45	58.661	61.04853	0.017047101
311	34.5	63.878	60.98685	0.015654842
312	34.55	54.162	60.93097	0.018463129
313	34.6	62.174	60.8802	0.016083894
314	34.65	56.3	60.83398	0.017761989
315	34.7	59.218	60.79181	0.016886757
316	34.75	60.253	60.75328	0.016596684
317	34.8	60.413	60.71806	0.016552729
318	34.85	56.868	60.68585	0.017584582
319	34.9	55.285	60.65641	0.018088089
320	34.95	65.129	60.62952	0.015354143
321	35	62.491	60.60503	0.016002304
322	35.05	60.267	60.58278	0.016592829
323	35.1	57.96	60.56268	0.017253278
324	35.15	59.815	60.54463	0.016718214
325	35.2	58.404	60.52858	0.017122115
326	35.25	59.769	60.51449	0.016731081
327	35.3	57.486	60.50235	0.01739554
328	35.35	59.377	60.49219	0.016841538
329	35.4	56.738	60.48403	0.017624872
330	35.45	57.076	60.47797	0.017520499
331	35.5	56.654	60.47409	0.017651004
332	35.55	52.576	60.47254	0.019020085
333	35.6	55.703	60.47352	0.017952354
334	35.65	62.081	60.47726	0.016107988
335	35.7	64.362	60.48407	0.015537118
336	35.75	58.005	60.49436	0.017239893
337	35.8	62.426	60.50862	0.016018966
338	35.85	60.477	60.52753	0.016535212
339	35.9	63.557	60.55204	0.015733908
340	35.95	64.951	60.58362	0.015396222
341	36	63.056	60.62479	0.015858919
342	36.05	63.223	60.68029	0.015817029
343	36.1	60.748	60.75916	0.016461447
344	36.15	62.378	60.87818	0.016031293
345	36.2	63.538	61.06689	0.015738613
346	36.25	64.544	61.37377	0.015493307
347	36.3	63.381	61.87305	0.015777599
348	36.35	63.606	62.67113	0.015721787
349	36.4	65.994	63.91182	0.015152893
350	36.45	64.333	65.77965	0.015544122
351	36.5	63.43	68.49881	0.015765411
352	36.55	72.359	72.32042	0.013819981
353	36.6	72.424	77.48168	0.013807578
354	36.65	74.055	84.1196	0.013503477
355	36.7	88.726	92.13965	0.011270653
356	36.75	94.049	101.07382	0.010632755
357	36.8	105.947	109.99591	0.009438682
358	36.85	116.814	117.57576	0.008560618
359	36.9	122.052	122.34666	0.008193229
360	36.95	128.56	123.1908	0.007778469
361	37	128.13	119.7866	0.007804573
362	37.05	109.954	112.67984	0.009094712
363	37.1	107.332	103.11627	0.009316886
364	37.15	91.304	92.76049	0.010952423
365	37.2	88.035	83.17218	0.011359119
366	37.25	80.247	75.34751	0.012461525
367	37.3	70.853	69.62197	0.014113728
368	37.35	69.261	65.82688	0.01443814
369	37.4	67.547	63.52698	0.014804506
370	37.45	64.632	62.23463	0.015472212
371	37.5	64.741	61.54413	0.015446162
372	37.55	57.691	61.178	0.017333726
373	37.6	64.844	60.97376	0.015421627
374	37.65	65.317	60.84783	0.01530995
375	37.7	62.749	60.7614	0.015936509
376	37.75	67.304	60.69751	0.014857958
377	37.8	62.925	60.64867	0.015891935
378	37.85	59.512	60.61119	0.016803334
379	37.9	63.347	60.58298	0.015786067
380	37.95	61.055	60.56264	0.016378675
381	38	68.903	60.54919	0.014513156
382	38.05	64.836	60.54197	0.01542353
383	38.1	65.373	60.54108	0.015296835
384	38.15	66.234	60.5455	0.015097986
385	38.2	63.736	60.5531	0.01568972
386	38.25	66.777	60.56486	0.014975216
387	38.3	63.784	60.58135	0.015677913
388	38.35	62.667	60.60292	0.015957362
389	38.4	58.241	60.63209	0.017170035
390	38.45	63.791	60.6646	0.015676193
391	38.5	61.989	60.69836	0.016131894
392	38.55	61.684	60.73485	0.016211659
393	38.6	61.049	60.77589	0.016380285
394	38.65	66.634	60.82174	0.015007354
395	38.7	66.231	60.87274	0.01509867
396	38.75	64.242	60.92894	0.015566141
397	38.8	69.83	60.99035	0.014320493
398	38.85	77.179	61.06227	0.012956892
399	38.9	69.21	61.145	0.014448779
400	38.95	68.124	61.23159	0.014679115
401	39	65.041	61.32542	0.015374917
402	39.05	68.495	61.42854	0.014599606
403	39.1	64.679	61.54208	0.015460969
404	39.15	68.441	61.66911	0.014611125
405	39.2	70.848	61.80975	0.014114724
406	39.25	68.215	61.96574	0.014659532
407	39.3	71.138	62.13916	0.014057185
408	39.35	70.287	62.33246	0.014227382
409	39.4	71.239	62.54853	0.014037255
410	39.45	69.901	62.79086	0.014305947
411	39.5	71.852	63.06362	0.013917497
412	39.55	74.878	63.37189	0.013355058
413	39.6	70.157	63.72187	0.014253745
414	39.65	73.431	64.12119	0.013618227
415	39.7	76.757	64.57946	0.013028128
416	39.75	70.395	65.10903	0.014205554
417	39.8	71.983	65.72674	0.013892169
418	39.85	77.688	66.45765	0.012872001
419	39.9	82.194	67.34351	0.012166338
420	39.95	79.499	68.46103	0.012578775
421	40	78.734	69.9572	0.012700993
422	40.05	81.19	72.11045	0.012316788
423	40.1	89.077	75.4241	0.011226242
424	40.15	90.841	80.75255	0.011008245
425	40.2	106.151	89.45298	0.009420542
426	40.25	112.07	103.54694	0.008922995
427	40.3	137.433	125.85637	0.007276273
428	40.35	162.657	160.02773	0.006147906
429	40.4	199.89	210.2853	0.005002752
430	40.45	267.173	280.69502	0.003742893
431	40.5	344.691	373.72438	0.002901149
432	40.55	468.212	488.1557	0.002135785
433	40.6	591.308	617.03105	0.001691166
434	40.65	735.376	746.75475	0.001359849
435	40.7	834.213	858.32056	0.001198735
436	40.75	938.316	931.47845	0.001065739
437	40.8	944.853	952.05066	0.001058366
438	40.85	888.156	917.44038	0.001125928
439	40.9	801.256	834.05066	0.001248041
440	40.95	689.087	713.61383	0.001451196
441	41	538.492	574.05136	0.001857038
442	41.05	404.705	436.56118	0.002470936
443	41.1	292.862	317.88688	0.003414578
444	41.15	217.074	226.31408	0.004606724
445	41.2	159.263	162.45577	0.006278922
446	41.25	126.778	121.89681	0.007887804
447	41.3	104.856	98.16236	0.009536889
448	41.35	91.523	85.08095	0.010926215
449	41.4	81.694	78.01464	0.012240801
450	41.45	77.698	74.04577	0.012870344
451	41.5	75.78	71.58807	0.013196094
452	41.55	71.175	69.87494	0.014049877
453	41.6	67.813	68.5639	0.014746435
454	41.65	69.734	67.50375	0.014340207
455	41.7	62.298	66.62176	0.01605188
456	41.75	59.198	65.87668	0.016892463
457	41.8	67.818	65.241	0.014745348
458	41.85	69.548	64.69453	0.014378559
459	41.9	64.914	64.22169	0.015404997
460	41.95	65.094	63.81025	0.015362399
461	42	59.798	63.45043	0.016722967
462	42.05	59.468	63.13439	0.016815766
463	42.1	61.276	62.85573	0.016319603
464	42.15	74.513	62.60924	0.013420477
465	42.2	68.251	62.39062	0.0146518
466	42.25	65.985	62.19633	0.015154959
467	42.3	64.6	62.02339	0.015479876
468	42.35	64.528	61.86934	0.015497149
469	42.4	62.212	61.73212	0.016074069
470	42.45	60.353	61.60998	0.016569185
471	42.5	57.985	61.50147	0.017245839
472	42.55	60.545	61.40538	0.016516641
473	42.6	61.928	61.3207	0.016147785
474	42.65	56.661	61.2466	0.017648824
475	42.7	61.249	61.18242	0.016326797
476	42.75	65.194	61.12764	0.015338835
477	42.8	62.798	61.08188	0.015924074
478	42.85	62.988	61.0449	0.01587604
479	42.9	60.979	61.01659	0.016399088
480	42.95	57.727	60.99699	0.017322916
481	43	57.039	60.9863	0.017531864
482	43.05	63.967	60.98487	0.015633061
483	43.1	63.847	60.9933	0.015662443
484	43.15	65.898	61.0124	0.015174967
485	43.2	64.443	61.04333	0.015517589
486	43.25	64.027	61.08771	0.015618411
487	43.3	64.431	61.14791	0.015520479
488	43.35	66.39	61.22767	0.015062509
489	43.4	67.468	61.33357	0.014821841
490	43.45	74.675	61.47809	0.013391363
491	43.5	77.359	61.68563	0.012926744
492	43.55	70.278	62.003	0.014229204
493	43.6	72.538	62.51571	0.013785878
494	43.65	75.453	63.37046	0.013253284
495	43.7	81.564	64.80177	0.012260311
496	43.75	83.769	67.15615	0.01193759
497	43.8	80.819	70.8988	0.012373328
498	43.85	85.328	76.57647	0.011719482
499	43.9	93.423	84.70644	0.010704002
500	43.95	106.613	95.56777	0.009379719
501	44	116.218	108.91759	0.008604519
502	44.05	132.991	123.73334	0.007519306
503	44.1	151.386	138.0934	0.006605631
504	44.15	160.991	149.39669	0.006211527
505	44.2	165.835	155.05257	0.00603009
506	44.25	163.219	153.52207	0.006126738
507	44.3	156.174	144.98724	0.006403114
508	44.35	130.182	131.23768	0.007681554
509	44.4	118.382	115.1347	0.00844723
510	44.45	97.034	99.61059	0.010305666
511	44.5	93.3	86.66912	0.010718114
512	44.55	87.392	77.10019	0.011442695
513	44.6	78.071	70.73386	0.012808853
514	44.65	71.159	66.8813	0.014053036
515	44.7	69.778	64.73143	0.014331165
516	44.75	69.629	63.60028	0.014361832
517	44.8	61.407	63.01978	0.016284788
518	44.85	65.036	62.71726	0.015376099
519	44.9	68.365	62.55342	0.014627368
520	44.95	59.748	62.46391	0.016736962
521	45	65.015	62.4206	0.015381066
522	45.05	69.228	62.41093	0.014445022
523	45.1	64.221	62.42872	0.015571231
524	45.15	61.789	62.47047	0.01618411
525	45.2	60.739	62.53402	0.016463886
526	45.25	62.91	62.61805	0.015895724
527	45.3	63.511	62.72184	0.015745304
528	45.35	65.779	62.84518	0.01520242
529	45.4	58.317	62.98827	0.017147658
530	45.45	67.675	63.1517	0.014776505
531	45.5	66.757	63.33645	0.014979703
532	45.55	62.001	63.54385	0.016128772
533	45.6	62.775	63.7756	0.015929908
534	45.65	64.796	64.03386	0.015433051
535	45.7	70.626	64.32122	0.014159092
536	45.75	65.624	64.64081	0.015238327
537	45.8	70.195	64.99638	0.014246029
538	45.85	71.059	65.3924	0.014072813
539	45.9	78.747	65.83422	0.012698896
540	45.95	73.287	66.32826	0.013644985
541	46	76.439	66.8822	0.013082327
542	46.05	82.249	67.50537	0.012158203
543	46.1	83.398	68.20907	0.011990695
544	46.15	83.83	69.00716	0.011928904
545	46.2	77.865	69.91672	0.012842741
546	46.25	85.255	70.95906	0.011729517
547	46.3	80.696	72.1611	0.012392188
548	46.35	85.355	73.55771	0.011715775
549	46.4	87.346	75.19616	0.011448721
550	46.45	90.213	77.14592	0.011084877
551	46.5	94.382	79.52168	0.010595241
552	46.55	91.643	82.5348	0.010911908
553	46.6	102.101	86.60343	0.009794223
554	46.65	112.846	92.55799	0.008861634
555	46.7	122.891	101.98753	0.008137292
556	46.75	155.101	117.74609	0.006447412
557	46.8	181.699	144.57113	0.005503608
558	46.85	223.777	189.62948	0.004468734
559	46.9	298.527	262.55884	0.003349781
560	46.95	405.09	374.27852	0.002468587
561	47	543.456	533.7719	0.001840075
562	47.05	759.384	742.68299	0.001316857
563	47.1	1021.493	989.01299	0.000978959
564	47.15	1292.466	1242.8238	0.000773715
565	47.2	1542.415	1457.56429	0.000648334
566	47.25	1622.159	1580.09373	0.000616462
567	47.3	1564.676	1570.94124	0.00063911
568	47.35	1344.148	1427.87565	0.000743966
569	47.4	1086.53	1192.37192	0.000920361
570	47.45	817.997	929.18624	0.001222498
571	47.5	632.462	697.01248	0.001581123
572	47.55	538.535	532.85319	0.00185689
573	47.6	489.78	451.26012	0.002041733
574	47.65	520.186	449.85997	0.001922389
575	47.7	592.378	515.28531	0.001688111
576	47.75	707.822	626.44376	0.001412785
577	47.8	826.191	755.27278	0.001210374
578	47.85	944.418	867.82875	0.001058853
579	47.9	992.091	928.93989	0.001007972
580	47.95	911.532	912.73922	0.001097054
581	48	763.2	817.63981	0.001310273
582	48.05	562.279	670.68201	0.001778477
583	48.1	374.112	510.19919	0.002672996
584	48.15	276.97	366.65763	0.003610499
585	48.2	193.892	255.88681	0.00515751
586	48.25	150.741	180.36464	0.006633895
587	48.3	126.866	134.05076	0.007882333
588	48.35	102.145	107.89803	0.009790004
589	48.4	91.521	93.76746	0.010926454
590	48.45	80.22	86.01378	0.012465719
591	48.5	80.015	81.38597	0.012497657
592	48.55	75.496	78.26377	0.013245735
593	48.6	68.07	75.9175	0.01469076
594	48.65	65.761	74.0344	0.015206581
595	48.7	68.856	72.46828	0.014523063
596	48.75	66.226	71.14173	0.01509981
597	48.8	64.332	70.00505	0.015544364
598	48.85	59.91	69.02252	0.016691704
599	48.9	55.606	68.16695	0.017983671
600	48.95	56.205	67.41704	0.017792011
601	49	59.499	66.7559	0.016807005
602	49.05	59.547	66.16992	0.016793457
603	49.1	65.067	65.64808	0.015368774
604	49.15	60.166	65.18134	0.016620683
605	49.2	64.227	64.76225	0.015569776
606	49.25	60.703	64.3846	0.01647365
607	49.3	64.112	64.04321	0.015597704
608	49.35	58.802	63.73369	0.017006224
609	49.4	58.954	63.45234	0.016962377
610	49.45	54.622	63.196	0.018307642
611	49.5	54.34	62.96197	0.01840265
612	49.55	60.77	62.74794	0.016455488
613	49.6	56.024	62.55192	0.017849493
614	49.65	61.514	62.37226	0.016256462
615	49.7	55.235	62.20757	0.018104463
616	49.75	58.863	62.05677	0.016988601
617	49.8	55.969	61.91905	0.017867034
618	49.85	54.55	61.79384	0.018331806
619	49.9	57.13	61.68069	0.017503938
620	49.95	58.531	61.57906	0.017084964
621	50	54.901	61.48801	0.018214604
622	50.05	56.764	61.40608	0.017616799
623	50.1	64.512	61.33124	0.015500992
624	50.15	59.116	61.26126	0.016915894
625	50.2	54.566	61.19441	0.01832643
626	50.25	52.601	61.13037	0.019011045
627	50.3	59.635	61.07047	0.016768676
628	50.35	55.336	61.01632	0.018071418
629	50.4	60.602	60.96829	0.016501106
630	50.45	59.925	60.92528	0.016687526
631	50.5	61.072	60.8853	0.016374116
632	50.55	54.129	60.84686	0.018474385
633	50.6	55.859	60.81025	0.017902218
634	50.65	55.542	60.77743	0.018004393
635	50.7	53.919	60.75055	0.018546338
636	50.75	57.16	60.73095	0.017494752
637	50.8	54.652	60.71882	0.018297592
638	50.85	57.701	60.71334	0.017330722
639	50.9	60.02	60.71308	0.016661113
640	50.95	58.94	60.71655	0.016966407
641	51	56.484	60.72281	0.017704129
642	51.05	55.753	60.73198	0.017936255
643	51.1	55.53	60.74507	0.018008284
644	51.15	55.71	60.76336	0.017950099
645	51.2	56.537	60.78783	0.017687532
646	51.25	55.626	60.8191	0.017977205
647	51.3	54.473	60.85747	0.018357719
648	51.35	53.701	60.90312	0.018621627
649	51.4	60.134	60.95622	0.016629527
650	51.45	59.7	61.01711	0.016750419
651	51.5	59.414	61.08626	0.01683105
652	51.55	60.521	61.1643	0.01652319
653	51.6	57.04	61.25205	0.017531557
654	51.65	58.759	61.35047	0.017018669
655	51.7	60.678	61.46069	0.016480438
656	51.75	61.313	61.58409	0.016309755
657	51.8	59.869	61.72237	0.016703135
658	51.85	55.714	61.87722	0.01794881
659	51.9	54.668	62.05076	0.018292237
660	51.95	61.709	62.24541	0.016205092
661	52	68.478	62.46452	0.01460323
662	52.05	61.546	62.71183	0.01624801
663	52.1	68.452	62.99131	0.014608777
664	52.15	63.272	63.30891	0.015804779
665	52.2	67.501	63.67145	0.014814595
666	52.25	65.694	64.08741	0.01522209
667	52.3	64.187	64.56779	0.015579479
668	52.35	69.299	65.12749	0.014430223
669	52.4	63.217	65.78706	0.01581853
670	52.45	64.088	66.58021	0.015603545
671	52.5	64.412	67.56643	0.015525057
672	52.55	71.575	68.8598	0.013971359
673	52.6	73.404	70.6819	0.013623236
674	52.65	72.426	73.44637	0.013807196
675	52.7	82.475	77.87053	0.012124886
676	52.75	86.009	85.07964	0.01162669
677	52.8	99.985	96.62432	0.0100015
678	52.85	108.601	114.29627	0.009208018
679	52.9	134.168	139.66204	0.007453342
680	52.95	166.996	173.40939	0.005988167
681	53	215.474	214.8468	0.004640931
682	53.05	261.018	261.93026	0.003831153
683	53.1	302.526	311.92592	0.003305501
684	53.15	360.955	362.67241	0.002770428
685	53.2	405.146	413.98278	0.002468246
686	53.25	454.687	466.75209	0.002199315
687	53.3	508.579	518.45646	0.001966263
688	53.35	567.089	559.64873	0.001763392
689	53.4	596.904	576.18626	0.001675311
690	53.45	588.82	557.55312	0.001698312
691	53.5	514.052	506.69227	0.001945328
692	53.55	426.976	441.1621	0.002342052
693	53.6	373.668	383.19026	0.002676172
694	53.65	334.751	348.77431	0.002987295
695	53.7	344.288	342.64988	0.002904545
696	53.75	371.759	358.14324	0.002689915
697	53.8	408.129	380.24425	0.002450206
698	53.85	437.507	390.96828	0.002285678
699	53.9	414.591	376.62917	0.002412016
700	53.95	344.965	335.41905	0.002898845
701	54	264.179	277.8976	0.003785312
702	54.05	197.555	218.24381	0.005061882
703	54.1	150.022	166.8346	0.006665689
704	54.15	116.401	128.34724	0.008590991
705	54.2	95.564	102.75274	0.010464192
706	54.25	82.717	87.30876	0.012089413
707	54.3	70.13	78.58951	0.014259233
708	54.35	67.947	73.75388	0.014717353
709	54.4	65.471	70.94226	0.015273938
710	54.45	58.206	69.13184	0.017180359
711	54.5	63.26	67.8295	0.015807777
712	54.55	65.091	66.82118	0.015363107
713	54.6	59.075	65.98894	0.016927634
714	54.65	57.746	65.28836	0.017317217
715	54.7	56.773	64.69376	0.017614007
716	54.75	57.546	64.18867	0.017377402
717	54.8	57.28	63.77463	0.017458101
718	54.85	60.255	63.42129	0.016596133
719	54.9	56.763	63.09323	0.01761711
720	54.95	58.691	62.79654	0.017038387
721	55	56.438	62.53407	0.017718558
722	55.05	58.146	62.30089	0.017198088
723	55.1	55.542	62.09297	0.018004393
724	55.15	55.981	61.90696	0.017863204
725	55.2	59.222	61.74006	0.016885617
726	55.25	60.335	61.58995	0.016574128
727	55.3	60.213	61.45464	0.016607709
728	55.35	58.178	61.33247	0.017188628
729	55.4	58.498	61.222	0.017094602
730	55.45	62.76	61.12204	0.015933716
731	55.5	58.944	61.03156	0.016965255
732	55.55	58.92	60.94972	0.016972166
733	55.6	60.61	60.87589	0.016498928
734	55.65	57.49	60.80966	0.017394329
735	55.7	57.27	60.75086	0.017461149
736	55.75	61.848	60.69971	0.016168672
737	55.8	58.299	60.65658	0.017152953
738	55.85	50.57	60.62176	0.01977457
739	55.9	54.417	60.59496	0.01837661
740	55.95	54.663	60.57474	0.01829391
741	56	57.019	60.55806	0.017538014
742	56.05	60.627	60.54049	0.016494301
743	56.1	59.406	60.52228	0.016833317
744	56.15	57.382	60.50316	0.017427068
745	56.2	58.28	60.481	0.017158545
746	56.25	60.942	60.46294	0.016409045
747	56.3	59.453	60.45112	0.016820009
748	56.35	58.398	60.44117	0.017123874
749	56.4	60.847	60.42982	0.016434664
750	56.45	56.561	60.41492	0.017680027
751	56.5	63.514	60.39789	0.01574456
752	56.55	64.171	60.38299	0.015583363
753	56.6	57.092	60.37259	0.017515589
754	56.65	60.39	60.36799	0.016559033
755	56.7	62.135	60.37051	0.016093989
756	56.75	56.817	60.37963	0.017600366
757	56.8	56.169	60.39441	0.017803415
758	56.85	60.627	60.41402	0.016494301
759	56.9	62.436	60.43797	0.016016401
760	56.95	57.194	60.46627	0.017484352
761	57	63.081	60.49941	0.015852634
762	57.05	56.633	60.53645	0.017657549
763	57.1	54.12	60.57726	0.018477458
764	57.15	58.647	60.62293	0.017051171
765	57.2	56.926	60.67387	0.017566665
766	57.25	59.723	60.73056	0.016743968
767	57.3	57.082	60.79356	0.017518657
768	57.35	58.895	60.86354	0.01697937
769	57.4	63.326	60.9413	0.015791302
770	57.45	58.271	61.02775	0.017161195
771	57.5	56.353	61.12397	0.017745284
772	57.55	55.582	61.23128	0.017991436
773	57.6	58.743	61.35121	0.017023305
774	57.65	58.887	61.48561	0.016981677
775	57.7	61.56	61.63672	0.016244314
776	57.75	65.733	61.80726	0.015213059
777	57.8	63.016	62.00055	0.015868986
778	57.85	63.938	62.22069	0.015640151
779	57.9	66.365	62.47279	0.015068184
780	57.95	59.041	62.76329	0.016937382
781	58	58.458	63.1004	0.017106299
782	58.05	63.633	63.49488	0.015715116
783	58.1	65.119	63.96138	0.015356501
784	58.15	69.016	64.52163	0.014489394
785	58.2	67.152	65.21198	0.014891589
786	58.25	65.952	66.10169	0.015162542
787	58.3	67.993	67.33313	0.014707396
788	58.35	67.805	69.19973	0.014748175
789	58.4	74.478	72.27205	0.013426784
790	58.45	78.768	77.55319	0.012695511
791	58.5	81.245	86.57974	0.01230845
792	58.55	106.945	101.30417	0.009350601
793	58.6	138.639	123.5672	0.007212978
794	58.65	173.539	154.10285	0.005762393
795	58.7	214.068	191.36407	0.004671413
796	58.75	257.172	230.83742	0.003888448
797	58.8	296.297	265.54713	0.003374992
798	58.85	301.233	288.28351	0.003319689
799	58.9	308.292	295.69263	0.003243678
800	58.95	317.44	291.21359	0.003150202
801	59	297.586	282.01927	0.003360373
802	59.05	285.265	273.0457	0.003505512
803	59.1	276.277	264.87429	0.003619556
804	59.15	279.52	255.92354	0.003577562
805	59.2	257.955	245.82473	0.003876645
806	59.25	250.996	235.77506	0.003984127
807	59.3	246.975	225.93861	0.004048993
808	59.35	230.777	214.48024	0.004333187
809	59.4	214.938	199.43203	0.004652504
810	59.45	188.598	180.39257	0.005302283
811	59.5	170.592	158.3233	0.00586194
812	59.55	134.352	135.42381	0.007443134
813	59.6	111.693	114.52662	0.008953113
814	59.65	96.917	97.60274	0.010318107
815	59.7	76.244	85.23998	0.013115786
816	59.75	75.942	76.97624	0.013167944
817	59.8	72.55	71.83753	0.013783598
818	59.85	66.998	68.78207	0.014925819
819	59.9	72.342	66.95976	0.013823229
820	59.95	71.539	65.81968	0.013978389
821	60	68.275	65.04255	0.01464665
822	60.05	66.003	64.46533	0.015150826
823	60.1	61.285	64.00989	0.016317206
824	60.15	64.727	63.63819	0.015449503
825	60.2	61.327	63.32977	0.016306032
826	60.25	65.98	63.0719	0.015156108
827	60.3	61.112	62.85599	0.016363398
828	60.35	54.99	62.67631	0.018185125
829	60.4	65.41	62.52517	0.015288182
830	60.45	64.73	62.4003	0.015448787
831	60.5	64.737	62.29891	0.015447117
832	60.55	61.454	62.21902	0.016272334
833	60.6	57.8	62.15937	0.017301038
834	60.65	67.72	62.11946	0.014766686
835	60.7	63.239	62.09963	0.015813027
836	60.75	66.673	62.10152	0.014998575
837	60.8	68.662	62.12919	0.014564097
838	60.85	60.422	62.19172	0.016550263
839	60.9	66.923	62.30855	0.014942546
840	60.95	63.772	62.51867	0.015680863
841	61	61.163	62.89319	0.016349754
842	61.05	69.486	63.54656	0.014391388
843	61.1	65.426	64.63613	0.015284443
844	61.15	66.851	66.33604	0.014958639
845	61.2	70.337	68.77623	0.014217268
846	61.25	73.291	71.95449	0.01364424
847	61.3	80.962	75.65221	0.012351474
848	61.35	88.535	79.40185	0.011294968
849	61.4	89.669	82.57951	0.011152126
850	61.45	88.426	84.65819	0.011308891
851	61.5	86.279	85.41003	0.011590306
852	61.55	83.455	84.90165	0.011982506
853	61.6	89.849	83.49344	0.011129784
854	61.65	81.77	81.89579	0.012229424
855	61.7	84.065	81.15054	0.011895557
856	61.75	80.794	82.38203	0.012377157
857	61.8	83.716	86.34655	0.011945148
858	61.85	94.237	93.0475	0.010611543
859	61.9	92.75	101.50402	0.010781671
860	61.95	108.074	109.74754	0.009252919
861	62	113.115	115.26399	0.00884056
862	62.05	109.928	116.03737	0.009096863
863	62.1	106.189	111.58655	0.009417171
864	62.15	104.313	103.14524	0.009586533
865	62.2	92.641	93.03136	0.010794357
866	62.25	85.048	83.4751	0.011758066
867	62.3	87.922	75.79118	0.011373718
868	62.35	78.033	70.3403	0.012815091
869	62.4	73.86	66.85265	0.013539128
870	62.45	73.446	64.78845	0.013615445
871	62.5	64.769	63.62726	0.015439485
872	62.55	62.96	62.98319	0.0158831
873	62.6	65.273	62.59982	0.01532027
874	62.65	57.55	62.34832	0.017376195
875	62.7	63.773	62.16725	0.015680617
876	62.75	68.761	62.02844	0.014543128
877	62.8	64.501	61.91825	0.015503636
878	62.85	67.625	61.82924	0.014787431
879	62.9	65.255	61.75659	0.015324496
880	62.95	71.723	61.6967	0.013942529
881	63	70.631	61.64646	0.014158089
882	63.05	63.662	61.60093	0.015707958
883	63.1	63.016	61.5621	0.015868986
884	63.15	64.331	61.53891	0.015544605
885	63.2	60.312	61.52126	0.016580448
886	63.25	63.673	61.5084	0.015705244
887	63.3	68.981	61.49968	0.014496745
888	63.35	61.529	61.49461	0.016252499
889	63.4	61.722	61.49275	0.016201678
890	63.45	61.714	61.49377	0.016203779
891	63.5	63.359	61.49736	0.015783077
892	63.55	67.917	61.50329	0.014723854
893	63.6	68.77	61.51134	0.014541224
894	63.65	66.52	61.52134	0.015033073
895	63.7	61.723	61.53325	0.016201416
896	63.75	58.862	61.54819	0.016988889
897	63.8	58.973	61.56357	0.016956912
898	63.85	69.121	61.58301	0.014467383
899	63.9	60.021	61.60102	0.016660835
900	63.95	56.332	61.62039	0.017751899
901	64	62.24	61.64137	0.016066838
902	64.05	65.247	61.66486	0.015326375
903	64.1	67.401	61.68931	0.014836575
904	64.15	71.919	61.71833	0.013904531
905	64.2	68.118	61.74563	0.014680408
906	64.25	59.699	61.77245	0.016750699
907	64.3	63.622	61.80044	0.015717833
908	64.35	57.81	61.82962	0.017298045
909	64.4	61.842	61.85997	0.01617024
910	64.45	69.655	61.89153	0.014356471
911	64.5	62.883	61.92431	0.015902549
912	64.55	59.81	61.95832	0.016719612
913	64.6	66.776	61.99361	0.01497544
914	64.65	64.393	62.0302	0.015529638
915	64.7	65.912	62.06815	0.015171744
916	64.75	62.157	62.1075	0.016088293
917	64.8	55.464	62.1483	0.018029713
918	64.85	60.667	62.19062	0.016483426
919	64.9	63.764	62.23454	0.01568283
920	64.95	66.913	62.28014	0.014944779
921	65	66.373	62.32752	0.015066367
922	65.05	63.973	62.37763	0.015631595
923	65.1	57.997	62.43102	0.017242271
924	65.15	64.637	62.48445	0.015471015
925	65.2	60.214	62.54019	0.016607433
926	65.25	55.641	62.59842	0.017972359
927	65.3	63.382	62.65936	0.01577735
928	65.35	63.916	62.72324	0.015645535
929	65.4	63.672	62.79036	0.015705491
930	65.45	57.278	62.86105	0.01745871
931	65.5	60.266	62.9357	0.016593104
932	65.55	59.65	63.01477	0.016764459
933	65.6	59.541	63.09884	0.01679515
934	65.65	63.717	63.18858	0.015694399
935	65.7	63.007	63.28482	0.015871252
936	65.75	61.229	63.38857	0.01633213
937	65.8	63.129	63.50111	0.01584058
938	65.85	60.114	63.62407	0.01663506
939	65.9	62.341	63.75953	0.016040808
940	65.95	58.571	63.91027	0.017073296
941	66	60.838	64.08027	0.016437095
942	66.05	66.062	64.27585	0.015137295
943	66.1	63.914	64.50849	0.015646024
944	66.15	66.565	64.80132	0.01502291
945	66.2	69.611	65.202	0.014365546
946	66.25	67.958	65.80374	0.014714971
947	66.3	67.307	66.7711	0.014857296
948	66.35	67.467	68.35589	0.014822061
949	66.4	66.713	70.87772	0.014989582
950	66.45	69.794	74.64282	0.014327879
951	66.5	73.398	79.7944	0.013624349
952	66.55	82.666	86.123	0.012096872
953	66.6	85.46	92.91585	0.011701381
954	66.65	93.923	99.00979	0.010647019
955	66.7	95.339	103.22432	0.010488887
956	66.75	89.225	104.85673	0.011207621
957	66.8	90.486	103.71616	0.011051433
958	66.85	89.105	100.00549	0.011222715
959	66.9	88.444	94.36218	0.011306589
960	66.95	88.952	87.86983	0.011242018
961	67	74.781	81.73023	0.013372381
962	67.05	73.886	76.74546	0.013534364
963	67.1	67.324	73.17275	0.014853544
964	67.15	61.153	70.88797	0.016352428
965	67.2	73.267	69.58744	0.01364871
966	67.25	72.379	68.94375	0.013816162
967	67.3	68.878	68.69503	0.014518424
968	67.35	65.519	68.67009	0.015262748
969	67.4	66.179	68.77363	0.015110534
970	67.45	72.279	68.95916	0.013835277
971	67.5	68.688	69.20632	0.014558584
972	67.55	74.787	69.50719	0.013371308
973	67.6	69.167	69.85952	0.014457762
974	67.65	68.455	70.26403	0.014608137
975	67.7	65.735	70.7234	0.015212596
976	67.75	67.634	71.24197	0.014785463
977	67.8	70.67	71.8258	0.014150276
978	67.85	72.891	72.48279	0.013719115
979	67.9	78.683	73.22307	0.012709226
980	67.95	73.97	74.0594	0.013518994
981	68	73.665	75.00788	0.013574968
982	68.05	75.582	76.08893	0.013230663
983	68.1	78.65	77.32879	0.012714558
984	68.15	76.562	78.76166	0.01306131
985	68.2	79.16	80.43399	0.012632643
986	68.25	82.575	82.41568	0.012110203
987	68.3	88.001	84.82817	0.011363507
988	68.35	95.244	87.90193	0.010499349
989	68.4	95.861	92.12813	0.010431771
990	68.45	107.432	98.52093	0.009308214
991	68.5	119.764	108.99178	0.008349755
992	68.55	132.556	126.6409	0.007543981
993	68.6	153.606	155.48627	0.006510162
994	68.65	194.122	199.27729	0.0051514
995	68.7	252.809	259.02269	0.003955555
996	68.75	301.517	330.0757	0.003316563
997	68.8	374.432	399.95791	0.002670712
998	68.85	432.178	449.38202	0.002313861
999	68.9	463.725	460.71942	0.00215645
1000	68.95	429.316	433.60256	0.002329287
1001	69	397.571	388.71079	0.002515274
1002	69.05	344.861	352.32832	0.002899719
1003	69.1	333.36	344.45428	0.00299976
1004	69.15	349.768	376.28294	0.002859038
1005	69.2	419.011	450.46572	0.002386572
1006	69.25	548.303	562.45501	0.001823809
1007	69.3	661.8	702.94521	0.001511031
1008	69.35	841.295	862.60892	0.001188644
1009	69.4	990.032	1041.48074	0.001010068
1010	69.45	1137.17	1251.43805	0.000879376
1011	69.5	1405.345	1491.70163	0.000711569
1012	69.55	1669.235	1719.97053	0.000599077
1013	69.6	1847.961	1854.23582	0.000541137
1014	69.65	1911.503	1817.13246	0.000523149
1015	69.7	1724.233	1600.6793	0.000579968
1016	69.75	1354.918	1277.1463	0.000738052
1017	69.8	981.892	939.92063	0.001018442
1018	69.85	667.662	652.73244	0.001497764
1019	69.9	480.872	441.03179	0.002079555
1020	69.95	338.334	302.13484	0.002955659
1021	70	248.533	218.9546	0.004023611
1022	70.05	194.187	171.80602	0.005149675
1023	70.1	157.626	145.1151	0.006344131
1024	70.15	142.41	129.06277	0.007021979
1025	70.2	122.806	118.39792	0.008142925
1026	70.25	109.367	110.61184	0.009143526
1027	70.3	95.47	104.55742	0.010474495
1028	70.35	96.372	99.68254	0.010376458
1029	70.4	84.249	95.68265	0.011869577
1030	70.45	79.716	92.36305	0.012544533
1031	70.5	80.279	89.5866	0.012456558
1032	70.55	73.255	87.25223	0.013650945
1033	70.6	71.378	85.2842	0.014009919
1034	70.65	69.256	83.62588	0.014439182
1035	70.7	73.506	82.23622	0.013604332
1036	70.75	68.534	81.08909	0.014591298
1037	70.8	71.613	80.17743	0.013963945
1038	70.85	74.326	79.52653	0.013454242
1039	70.9	79.729	79.22228	0.012542488
1040	70.95	75.944	79.45579	0.013167597
1041	71	76.144	80.56856	0.013133011
1042	71.05	82.074	83.05196	0.012184127
1043	71.1	81.792	87.43363	0.012226135
1044	71.15	86.451	94.00797	0.011567246
1045	71.2	96.359	102.45117	0.010377858
1046	71.25	106.407	111.45703	0.009397878
1047	71.3	117.145	118.67093	0.008536429
1048	71.35	111.391	121.49855	0.008977386
1049	71.4	120.145	118.99851	0.008323276
1050	71.45	120.45	113.04151	0.0083022
1051	71.5	111.373	107.00964	0.008978837
1052	71.55	106.532	103.72984	0.009386851
1053	71.6	102.896	104.51649	0.009718551
1054	71.65	116.429	108.97393	0.008588925
1055	71.7	125.869	115.06115	0.007944768
1056	71.75	124.035	119.55299	0.00806224
1057	71.8	134.14	119.42276	0.007454898
1058	71.85	136.564	113.88206	0.007322574
1059	71.9	120.421	104.84643	0.008304199
1060	71.95	108.394	95.11243	0.009225603
1061	72	99.814	86.66809	0.010018635
1062	72.05	92.944	80.3544	0.010759167
1063	72.1	87.094	76.15244	0.011481847
1064	72.15	85.459	73.59404	0.011701518
1065	72.2	81.852	72.1122	0.012217172
1066	72.25	78.327	71.25027	0.01276699
1067	72.3	69.763	70.71969	0.014334246
1068	72.35	74.909	70.36725	0.013349531
1069	72.4	76.804	70.12019	0.013020155
1070	72.45	74.888	69.94508	0.013353274
1071	72.5	74.128	69.82548	0.013490179
1072	72.55	70.835	69.75205	0.014117315
1073	72.6	75.014	69.71885	0.013330845
1074	72.65	77.233	69.72213	0.012947833
1075	72.7	72.853	69.7598	0.013726271
1076	72.75	78.014	69.83109	0.012818212
1077	72.8	77.749	69.93637	0.012861902
1078	72.85	71.368	70.07708	0.014011882
1079	72.9	67.793	70.25569	0.014750785
1080	72.95	69.497	70.4758	0.01438911
1081	73	72.728	70.74237	0.013749863
1082	73.05	77.593	71.06196	0.01288776
1083	73.1	86.592	71.44319	0.011548411
1084	73.15	81.275	71.89744	0.012303906
1085	73.2	78.409	72.43998	0.012753638
1086	73.25	75.754	73.09231	0.013200623
1087	73.3	85.7	73.88775	0.011668611
1088	73.35	85.916	74.8854	0.011639276
1089	73.4	93.06	76.20284	0.010745755
1090	73.45	88.857	78.08594	0.011254037
1091	73.5	93.169	81.02012	0.010733184
1092	73.55	101.228	85.76511	0.00987869
1093	73.6	103.615	93.50774	0.009651112
1094	73.65	119.369	105.54151	0.008377384
1095	73.7	130.169	122.73046	0.007682321
1096	73.75	151.744	144.67471	0.006590046
1097	73.8	164.315	168.83351	0.006085872
1098	73.85	196.97	190.20083	0.005076915
1099	73.9	207.969	203.20408	0.004808409
1100	73.95	205.301	206.14121	0.004870897
1101	74	206.653	203.64049	0.00483903
1102	74.05	209.995	203.5956	0.004762018
1103	74.1	208.001	214.13584	0.004807669
1104	74.15	225.342	241.69125	0.004437699
1105	74.2	271.045	288.06131	0.003689424
1106	74.25	336.847	347.86689	0.002968707
1107	74.3	413.717	407.71347	0.002417111
1108	74.35	484.297	449.84891	0.002064849
1109	74.4	500.791	464.26126	0.001996841
1110	74.45	503.772	457.58273	0.001985025
1111	74.5	493.771	442.37306	0.00202523
1112	74.55	471.191	421.72449	0.002122282
1113	74.6	441.403	388.63059	0.002265503
1114	74.65	393.468	338.81993	0.002541503
1115	74.7	326.395	279.64398	0.003063772
1116	74.75	249.159	223.2214	0.004013501
1117	74.8	201.805	177.85654	0.004955279
1118	74.85	164.368	146.68591	0.006083909
1119	74.9	134.026	129.04903	0.007461239
1120	74.95	130.693	121.9663	0.007651519
1121	75	129.483	121.34613	0.007723022
1122	75.05	133.121	122.69381	0.007511963
1123	75.1	132.482	121.82385	0.007548195
1124	75.15	127.696	116.61967	0.007831099
1125	75.2	112.603	108.19748	0.008880758
1126	75.25	97.472	99.05649	0.010259357
1127	75.3	85.785	91.03118	0.01165705
1128	75.35	84.132	84.91937	0.011886084
1129	75.4	78.23	80.74737	0.01278282
1130	75.45	77.59	78.12488	0.012888259
1131	75.5	79.529	76.556	0.01257403
1132	75.55	72.189	75.63528	0.013852526
1133	75.6	82.244	75.10833	0.012158942
1134	75.65	74.026	74.84569	0.013508767
1135	75.7	75.019	74.80134	0.013329956
1136	75.75	76.103	74.99042	0.013140086
1137	75.8	75.536	75.49968	0.013238721
1138	75.85	73.58	76.54748	0.01359065
1139	75.9	81.073	78.56318	0.012334563
1140	75.95	80.16	82.26521	0.01247505
1141	76	91.14	88.62232	0.010972131
1142	76.05	90.393	98.57196	0.011062804
1143	76.1	107.59	112.45019	0.009294544
1144	76.15	119.677	129.23182	0.008355824
1145	76.2	130.488	145.84544	0.00766354
1146	76.25	147.299	157.2839	0.006788912
1147	76.3	142.409	159.14709	0.007022028
1148	76.35	145.682	151.79927	0.006864266
1149	76.4	134.496	140.68079	0.007435165
1150	76.45	131.341	132.11961	0.007613769
1151	76.5	127.167	130.12241	0.007863675
1152	76.55	141.457	135.56569	0.007069286
1153	76.6	145.957	146.1332	0.006851333
1154	76.65	151.552	156.5821	0.006598395
1155	76.7	159.681	160.39636	0.006262486
1156	76.75	159.991	153.89767	0.006250352
1157	76.8	146.061	139.17284	0.006846455
1158	76.85	133.222	121.53866	0.007506268
1159	76.9	115.061	105.39886	0.008691042
1160	76.95	102.091	92.89025	0.009795183
1161	77	90.587	84.33714	0.011039112
1162	77.05	87.328	79.032	0.011451081
1163	77.1	80.949	75.94374	0.012353457
1164	77.15	79.797	74.17299	0.012531799
1165	77.2	75.764	73.11711	0.013198881
1166	77.25	75.823	72.43911	0.01318861
1167	77.3	79.524	71.97262	0.01257482
1168	77.35	75.103	71.63997	0.013315047
1169	77.4	73.449	71.40487	0.013614889
1170	77.45	73.254	71.24545	0.013651132
1171	77.5	75.421	71.1483	0.013258907
1172	77.55	72.894	71.10736	0.01371855
1173	77.6	74.756	71.11972	0.013376853
1174	77.65	78.752	71.18487	0.01269809
1175	77.7	74.843	71.3043	0.013361303
1176	77.75	75.728	71.48153	0.013205155
1177	77.8	73.791	71.72259	0.013551788
1178	77.85	71.863	72.03673	0.013915367
1179	77.9	74.725	72.43787	0.013382402
1180	77.95	74.305	72.94775	0.013458045
1181	78	76.586	73.60351	0.013057217
1182	78.05	78.432	74.47772	0.012749898
1183	78.1	84.498	75.70637	0.0118346
1184	78.15	81.338	77.56795	0.012294377
1185	78.2	87.383	80.55172	0.011443874
1186	78.25	88.763	85.41096	0.011265955
1187	78.3	94.915	93.11938	0.010535743
1188	78.35	109.657	104.58738	0.009119345
1189	78.4	115.263	120.18788	0.008675811
1190	78.45	130.84	139.09877	0.007642923
1191	78.5	151.05	158.89945	0.006620324
1192	78.55	163.702	176.39425	0.006108661
1193	78.6	170.31	189.5586	0.005871646
1194	78.65	176.006	199.18151	0.005681624
1195	78.7	199.688	209.32093	0.005007812
1196	78.75	216.623	223.46378	0.004616315
1197	78.8	230.143	240.03771	0.004345125
1198	78.85	238.716	252.61068	0.004189078
1199	78.9	243.892	253.09706	0.004100175
1200	78.95	215.565	236.58134	0.004638972
1201	79	185.614	206.46368	0.005387525
1202	79.05	156.196	171.94833	0.006402213
1203	79.1	135.406	140.88555	0.007385197
1204	79.15	115.311	116.99125	0.0086722
1205	79.2	99.891	100.69564	0.010010912
1206	79.25	93.263	90.62263	0.010722366
1207	79.3	90.983	84.8569	0.010991064
1208	79.35	85.715	81.7676	0.011666569
1209	79.4	88.945	80.34127	0.011242903
1210	79.45	83.525	80.19152	0.011972463
1211	79.5	84.063	81.44783	0.01189584
1212	79.55	86.186	84.59718	0.011602813
1213	79.6	92.288	90.22413	0.010835645
1214	79.65	100.139	98.59058	0.009986119
1215	79.7	102.673	109.09885	0.009739659
1216	79.75	114.98	119.73174	0.008697165
1217	79.8	128.92	126.80822	0.007756748
1218	79.85	125.254	126.61401	0.007983777
1219	79.9	128.421	119.08515	0.007786888
1220	79.95	115.444	107.90745	0.008662209
1221	80	94.603	96.78245	0.010570489
1222	80.05	83.064	87.7241	0.01203891
1223	80.1	81.767	81.31023	0.012229873
1224	80.15	78.743	77.23521	0.012699542
1225	80.2	80.814	74.83091	0.012374094
1226	80.25	69.79	73.45187	0.0143287
1227	80.3	73.689	72.63499	0.013570546
1228	80.35	76.622	72.11253	0.013051082
1229	80.4	77.504	71.75057	0.01290256
1230	80.45	78.082	71.48633	0.012807049
1231	80.5	74.405	71.29	0.013439957
1232	80.55	77.029	71.14591	0.012982124
1233	80.6	74.205	71.04478	0.013476181
1234	80.65	72.328	70.98075	0.013825904
1235	80.7	76.814	70.95024	0.01301846
1236	80.75	77.146	70.95152	0.012962435
1237	80.8	73.325	70.98457	0.013637913
1238	80.85	67.158	71.05132	0.014890259
1239	80.9	69.92	71.15662	0.014302059
1240	80.95	63.644	71.3108	0.0157124
1241	81	65.59	71.53585	0.015246227
1242	81.05	70.278	71.87781	0.014229204
1243	81.1	73.433	72.42632	0.013617856
1244	81.15	76.852	73.33597	0.013012023
1245	81.2	73.028	74.83255	0.013693378
1246	81.25	72.146	77.18006	0.013860782
1247	81.3	79.318	80.58982	0.012607479
1248	81.35	92.927	85.06566	0.010761135
1249	81.4	87.556	90.18969	0.011421262
1250	81.45	102.397	95.00507	0.009765911
1251	81.5	105.049	98.41639	0.009519367
1252	81.55	96.229	99.80374	0.010391878
1253	81.6	90.159	99.00472	0.011091516
1254	81.65	86.213	96.13921	0.011599179
1255	81.7	92.253	91.74177	0.010839756
1256	81.75	83.855	86.83073	0.011925347
1257	81.8	83.011	82.42357	0.012046596
1258	81.85	77.592	79.04211	0.012887927
1259	81.9	76.571	76.74849	0.013059775
1260	81.95	74.415	75.3613	0.013438151
1261	82	78.581	74.62497	0.012725723
1262	82.05	81.933	74.30333	0.012205094
1263	82.1	74.363	74.23618	0.013447548
1264	82.15	76.445	74.31516	0.0130813
1265	82.2	76.277	74.49811	0.013110112
1266	82.25	79.105	74.76456	0.012641426
1267	82.3	81.27	75.10857	0.012304663
1268	82.35	79.036	75.53187	0.012652462
1269	82.4	81.96	76.04123	0.012201074
1270	82.45	80.234	76.64778	0.012463544
1271	82.5	80.611	77.37032	0.012405255
1272	82.55	80.768	78.22534	0.012381141
1273	82.6	81.728	79.25075	0.012235709
1274	82.65	84.71	80.47569	0.011804982
1275	82.7	90.055	81.96441	0.011104325
1276	82.75	86.664	83.80457	0.011538817
1277	82.8	92.762	86.15849	0.010780276
1278	82.85	91.238	89.34001	0.010960345
1279	82.9	98.405	93.99911	0.010162085
1280	82.95	108.062	101.37597	0.009253947
1281	83	120.78	113.60258	0.008279516
1282	83.05	141.302	133.70283	0.007077041
1283	83.1	168.223	164.96337	0.00594449
1284	83.15	200.749	209.43281	0.004981345
1285	83.2	263.652	265.60516	0.003792878
1286	83.25	331.794	325.6059	0.003013918
1287	83.3	370.233	374.2184	0.002701002
1288	83.35	383.589	397.21202	0.002606957
1289	83.4	394.934	393.594	0.002532069
1290	83.45	366.693	374.54658	0.002727077
1291	83.5	339.272	356.42062	0.002947488
1292	83.55	329.983	350.4112	0.003030459
1293	83.6	332.11	354.57854	0.003011051
1294	83.65	344.976	355.67868	0.002898752
1295	83.7	329.303	340.93105	0.003036717
1296	83.75	295.524	307.61044	0.00338382
1297	83.8	258.604	262.04466	0.003866916
1298	83.85	213.73	215.27069	0.0046788
1299	83.9	187.107	176.00609	0.005344535
1300	83.95	158.498	147.72232	0.006309228
1301	84	135.252	130.29153	0.007393606
1302	84.05	131.168	122.24346	0.007623811
1303	84.1	126.794	122.50113	0.007886809
1304	84.15	137.321	131.34361	0.007282207
1305	84.2	152.963	150.3898	0.006537529
1306	84.25	183.105	181.57536	0.005461347
1307	84.3	228.898	225.19185	0.004368758
1308	84.35	281.939	277.15049	0.003546867
1309	84.4	331.442	326.24859	0.003017119
1310	84.45	366.809	356.73058	0.002726214
1311	84.5	364.124	359.01519	0.002746317
1312	84.55	332.186	332.8314	0.003010362
1313	84.6	272.918	285.45379	0.003664104
1314	84.65	226.568	231.4394	0.004413686
1315	84.7	175.145	183.4002	0.005709555
1316	84.75	135.526	146.77683	0.007378658
1317	84.8	107.749	121.7468	0.009280829
1318	84.85	97.355	105.96355	0.010271686
1319	84.9	89.399	96.4617	0.011185807
1320	84.95	86.003	90.73798	0.011627501
1321	85	77.663	87.11104	0.012876144
1322	85.05	75.726	84.62199	0.013205504
1323	85.1	75.562	82.78087	0.013234165
1324	85.15	73.439	81.34719	0.013616743
1325	85.2	79.483	80.19708	0.012581307
1326	85.25	71.179	79.25875	0.014049088
1327	85.3	74.107	78.48517	0.013494002
1328	85.35	70.881	77.84292	0.014108153
1329	85.4	73.205	77.30722	0.013660269
1330	85.45	70.324	76.85928	0.014219896
1331	85.5	74.273	76.48471	0.013463843
1332	85.55	74.504	76.17233	0.013422098
1333	85.6	68.973	75.91345	0.014498427
1334	85.65	70.004	75.7013	0.014284898
1335	85.7	68.988	75.53064	0.014495275
1336	85.75	70.153	75.39744	0.014254558
1337	85.8	68.289	75.29878	0.014643647
1338	85.85	76.113	75.23261	0.01313836
1339	85.9	71.659	75.19778	0.013954981
1340	85.95	70.971	75.19399	0.014090262
1341	86	69.8	75.22187	0.014326648
1342	86.05	69.063	75.28308	0.014479533
1343	86.1	69.369	75.38053	0.014415661
1344	86.15	72.571	75.51886	0.013779609
1345	86.2	71.633	75.70671	0.013960046
1346	86.25	74.493	75.96006	0.01342408
1347	86.3	69.653	76.30905	0.014356883
1348	86.35	74.683	76.81545	0.013389928
1349	86.4	70.84	77.60055	0.014116318
1350	86.45	71.896	78.87514	0.01390898
1351	86.5	73.261	80.94712	0.013649827
1352	86.55	81.783	84.16639	0.01222748
1353	86.6	90.072	88.77418	0.011102229
1354	86.65	92.767	94.65196	0.010779695
1355	86.7	95.835	100.9795	0.010434601
1356	86.75	97.551	106.05584	0.010251048
1357	86.8	103.119	108.01959	0.009697534
1358	86.85	100.019	106.15773	0.0099981
1359	86.9	98.779	101.38173	0.010123609
1360	86.95	98.17	95.61548	0.010186411
1361	87	92.126	90.47093	0.010854699
1362	87.05	80.104	86.67008	0.012483771
1363	87.1	78.987	84.27869	0.012660311
1364	87.15	81.58	83.03957	0.012257906
1365	87.2	78.719	82.61336	0.012703413
1366	87.25	85.269	82.71661	0.011727592
1367	87.3	83.529	83.16749	0.01197189
1368	87.35	74.133	83.87412	0.013489269
1369	87.4	81.817	84.80489	0.012222399
1370	87.45	82.578	85.96406	0.012109763
1371	87.5	86.77	87.37858	0.011524721
1372	87.55	88.4	89.09415	0.011312217
1373	87.6	87.975	91.17735	0.011366866
1374	87.65	88.584	93.72371	0.01128872
1375	87.7	102.19	96.87681	0.009785693
1376	87.75	107.938	100.87601	0.009264578
1377	87.8	111.515	106.17434	0.008967403
1378	87.85	120.916	113.69831	0.008270204
1379	87.9	134.485	125.31207	0.007435774
1380	87.95	164.222	144.40272	0.006089318
1381	88	197.055	176.1577	0.005074725
1382	88.05	251.33	226.7465	0.003978833
1383	88.1	318.422	300.74794	0.003140487
1384	88.15	421.897	396.93077	0.002370247
1385	88.2	517.231	502.69667	0.001933372
1386	88.25	599.318	588.01724	0.001668563
1387	88.3	615.557	613.28203	0.001624545
1388	88.35	546.517	569.92938	0.001829769
1389	88.4	480.226	496.00511	0.002082353
1390	88.45	439.589	435.83128	0.002274852
1391	88.5	447.583	416.60601	0.002234222
1392	88.55	468.559	448.55524	0.002134203
1393	88.6	556.158	525.87479	0.00179805
1394	88.65	666.983	624.5585	0.001499289
1395	88.7	731.1	699.04489	0.001367802
1396	88.75	711.375	698.20566	0.001405728
1397	88.8	621.325	615.04437	0.001609464
1398	88.85	470.647	492.36786	0.002124735
1399	88.9	347.072	372.43748	0.002881247
1400	88.95	255.024	276.08904	0.0039212
1401	89	194.947	208.16967	0.005129599
1402	89.05	163.475	164.73472	0.006117143
1403	89.1	128.107	138.58247	0.007805975
1404	89.15	116.749	122.9776	0.008565384
1405	89.2	112.871	113.23098	0.008859672
1406	89.25	102.658	106.64254	0.009741082
1407	89.3	94.29	101.83276	0.010605579
1408	89.35	100.174	98.13528	0.00998263
1409	89.4	92.602	95.20877	0.010798903
1410	89.45	84.86	92.8695	0.011784115
1411	89.5	72.947	90.99372	0.013708583
1412	89.55	82.99	89.49463	0.012049645
1413	89.6	80.364	88.3153	0.012443383
1414	89.65	83.822	87.42084	0.011930042
1415	89.7	74.309	86.79938	0.01345732
1416	89.75	78.931	86.47036	0.012669293
1417	89.8	85.335	86.50191	0.011718521
1418	89.85	80.266	87.03364	0.012458575
1419	89.9	95.196	88.29443	0.010504643
1420	89.95	86.031	90.59356	0.011623717
1421	90	86.193	94.26372	0.01160187
1422	90.05	97.098	99.54292	0.010298873
1423	90.1	100.23	106.34925	0.009977053
1424	90.15	103.647	114.0014	0.009648133
1425	90.2	113.264	121.57319	0.008828931
1426	90.25	118.216	128.87648	0.008459092
1427	90.3	132.716	135.87371	0.007534887
1428	90.35	135.823	141.91796	0.007362523
1429	90.4	128.665	147.1678	0.007772121
1430	90.45	143.529	153.01187	0.006967233
1431	90.5	144.836	159.70876	0.006904361
1432	90.55	158.657	164.88361	0.006302905
1433	90.6	158.782	164.73218	0.006297943
1434	90.65	147.594	157.2649	0.006775343
1435	90.7	144.379	145.30121	0.006926215
1436	90.75	142.6	134.2745	0.007012623
1437	90.8	136.71	128.203	0.007314754
1438	90.85	140.969	128.57858	0.007093758
1439	90.9	143.49	134.57049	0.006969127
1440	90.95	162.176	142.94662	0.00616614
1441	91	155.2	148.24432	0.006443299
1442	91.05	153.233	145.60314	0.006526009
1443	91.1	142.946	135.21031	0.006995649
1444	91.15	129.953	121.4904	0.00769509
1445	91.2	122.992	108.54086	0.00813061
1446	91.25	105.033	98.30828	0.009520817
1447	91.3	95.607	91.14509	0.010459485
1448	91.35	92.945	86.5587	0.010759051
1449	91.4	87.192	83.77972	0.011468942
1450	91.45	81.585	82.11724	0.012257155
1451	91.5	78.259	81.09558	0.012778083
1452	91.55	82.333	80.44551	0.012145798
1453	91.6	90.31	80.03104	0.011072971
1454	91.65	86.205	79.78742	0.011600255
1455	91.7	83.518	79.68848	0.011973467
1456	91.75	85.482	79.7298	0.011698369
1457	91.8	92.166	79.92806	0.010849988
1458	91.85	79.053	80.33379	0.012649741
1459	91.9	86.865	81.06014	0.011512117
1460	91.95	85.256	82.32505	0.01172938
1461	92	94.068	84.48565	0.010630608
1462	92.05	95.677	88.0154	0.010451833
1463	92.1	97.632	93.36584	0.010242543
1464	92.15	100.622	100.68326	0.009938184
1465	92.2	114.974	109.3687	0.008697619
1466	92.25	123.886	117.52196	0.008071937
1467	92.3	123.95	122.06156	0.008067769
1468	92.35	112.289	120.85789	0.008905592
1469	92.4	108.12	114.91147	0.009248983
1470	92.45	103.257	107.34053	0.009684573
1471	92.5	103.891	100.76218	0.009625473
1472	92.55	105.593	96.44825	0.009470325
1473	92.6	97.89	94.8549	0.010215548
1474	92.65	100.751	96.22586	0.00992546
1475	92.7	108.655	100.997	0.009203442
1476	92.75	115.784	109.92327	0.008636772
1477	92.8	131.613	123.83909	0.007598034
1478	92.85	137.651	142.99114	0.007264749
1479	92.9	179.843	165.90928	0.005560405
1480	92.95	187.905	188.42512	0.005321838
1481	93	186.732	205.13852	0.005355269
1482	93.05	189.354	212.0519	0.005281114
1483	93.1	196.078	207.74309	0.005100011
1484	93.15	167.768	194.08365	0.005960612
1485	93.2	154.074	174.51055	0.006490388
1486	93.25	130.153	153.16063	0.007683265
1487	93.3	125.309	134.6128	0.007980273
1488	93.35	124.296	121.69037	0.008045311
1489	93.4	118.199	115.36989	0.008460308
1490	93.45	129.925	115.92041	0.007696748
1491	93.5	135.536	123.44119	0.007378114
1492	93.55	146.614	137.62154	0.006820631
1493	93.6	159.314	156.86052	0.006276912
1494	93.65	185.779	176.7805	0.00538274
1495	93.7	189.961	189.38478	0.005264238
1496	93.75	183.457	187.2847	0.005450869
1497	93.8	162.42	171.27327	0.006156877
1498	93.85	140.146	149.24207	0.007135416
1499	93.9	127.438	128.3618	0.007846953
1500	93.95	102.858	111.93115	0.009722141
1501	94	95.38	100.48456	0.010484378
1502	94.05	93.002	93.18836	0.010752457
1503	94.1	83.812	88.79015	0.011931466
1504	94.15	84.202	86.18087	0.011876202
1505	94.2	90.272	84.60355	0.011077632
1506	94.25	84.248	83.62671	0.011869718
1507	94.3	79.728	83.03488	0.012542645
1508	94.35	84.596	82.73214	0.01182089
1509	94.4	85.955	82.68745	0.011633995
1510	94.45	83.85	82.91675	0.011926058
1511	94.5	77.99	83.49269	0.012822157
1512	94.55	80.665	84.57542	0.01239695
1513	94.6	82.851	86.45223	0.01206986
1514	94.65	91.767	89.56581	0.010897163
1515	94.7	96.978	94.48357	0.010311617
1516	94.75	105.801	101.77836	0.009451707
1517	94.8	130.241	111.77882	0.007678074
1518	94.85	138.694	124.03956	0.007210117
1519	94.9	149.428	136.8406	0.006692186
1520	94.95	159.452	148.2606	0.00627148
1521	95	168.136	157.63144	0.005947566
1522	95.05	169.638	163.53741	0.005894906
1523	95.1	168.616	163.32615	0.005930635
1524	95.15	162.186	156.73792	0.00616576
1525	95.2	147.215	146.42793	0.006792786
1526	95.25	145.347	134.37137	0.006880087
1527	95.3	126.819	121.53025	0.007885254
1528	95.35	118.84	109.61772	0.008414675
1529	95.4	102.57	100.05742	0.009749439
1530	95.45	99.806	93.13142	0.010019438
1531	95.5	94.185	88.44435	0.010617402
1532	95.55	90.43	85.42213	0.011058277
1533	95.6	91.031	83.51577	0.010985269
1534	95.65	88.924	82.30636	0.011245558
1535	95.7	81.046	81.52485	0.012338672
1536	95.75	78.077	81.00547	0.012807869
1537	95.8	83.456	80.66275	0.011982362
1538	95.85	85.584	80.44912	0.011684427
1539	95.9	76.459	80.33645	0.013078905
1540	95.95	73.074	80.30786	0.013684758
1541	96	73.66	80.35642	0.013575889
1542	96.05	80.371	80.48127	0.012442299
1543	96.1	81.896	80.68303	0.012210609
1544	96.15	75.319	80.96279	0.013276862
1545	96.2	82.888	81.3284	0.012064473
1546	96.25	78.222	81.78929	0.012784127
1547	96.3	81.759	82.35921	0.012231069
1548	96.35	85.113	83.06394	0.011749087
1549	96.4	89.122	83.93616	0.011220574
1550	96.45	99.705	85.02129	0.010029587
1551	96.5	92.335	86.38795	0.010830129
1552	96.55	98.889	88.15365	0.010112348
1553	96.6	97.705	90.53776	0.010234891
1554	96.65	102.202	93.96862	0.009784544
1555	96.7	102.833	99.22532	0.009724505
1556	96.75	126.822	107.59431	0.007885067
1557	96.8	145.21	120.83319	0.006886578
1558	96.85	165.309	140.75943	0.006049277
1559	96.9	191.518	168.29217	0.005221441
1560	96.95	234.115	201.78753	0.004271405
1561	97	269.917	234.64841	0.003704843
1562	97.05	268.837	254.98862	0.003719726
1563	97.1	253.507	253.05703	0.003944664
1564	97.15	233.131	231.18209	0.004289434
1565	97.2	197.595	201.8612	0.005060857
1566	97.25	178.134	176.63695	0.005613751
1567	97.3	174.693	161.45795	0.005724328
1568	97.35	173.635	158.44806	0.005759208
1569	97.4	178.288	167.74612	0.005608902
1570	97.45	191.529	187.99003	0.005221141
1571	97.5	214.866	215.53232	0.004654063
1572	97.55	222.165	243.67892	0.004501159
1573	97.6	245.408	264.67163	0.004074847
1574	97.65	257.215	272.75786	0.003887798
1575	97.7	242.033	267.8603	0.004131668
1576	97.75	245.316	256.29228	0.004076375
1577	97.8	232.702	244.5743	0.004297342
1578	97.85	229.19	236.31853	0.004363192
1579	97.9	224.978	231.29898	0.004444879
1580	97.95	225.784	226.22831	0.004429012
1581	98	212.803	218.19111	0.004699182
1582	98.05	208.451	209.28509	0.00479729
1583	98.1	210.307	205.17729	0.004754953
1584	98.15	219.134	208.57044	0.004563418
1585	98.2	238.51	216.3453	0.004192696
1586	98.25	241.26	220.81403	0.004144906
1587	98.3	224.32	216.61835	0.004457917
1588	98.35	224.625	206.69922	0.004451864
1589	98.4	199.089	196.51648	0.005022879
1590	98.45	196.597	186.50018	0.005086548
1591	98.5	174.774	173.13616	0.005721675
1592	98.55	153.589	155.46151	0.006510883
1593	98.6	127.132	136.93291	0.00786584
1594	98.65	111.471	120.95155	0.008970943
1595	98.7	111.835	108.75097	0.008941745
1596	98.75	98.935	100.14306	0.010107646
1597	98.8	88.949	94.37664	0.011242397
1598	98.85	87.82	90.60267	0.011386928
1599	98.9	81.666	88.12294	0.012244998
1600	98.95	82.79	86.4773	0.012078753
1601	99	82.489	85.41722	0.012122828
1602	99.05	80.604	84.83075	0.012406332
1603	99.1	79.965	84.66203	0.012505471
1604	99.15	81.283	84.83385	0.012302696
1605	99.2	74.772	85.16017	0.01337399
1606	99.25	73.317	85.2968	0.013639402
1607	99.3	80.686	84.98068	0.012393724
1608	99.35	71.467	84.21145	0.013992472
1609	99.4	70.86	83.1652	0.014112334
1610	99.45	76.413	82.03609	0.013086778
1611	99.5	71.473	81.04727	0.013991297
1612	99.55	68.568	80.33023	0.014584063
1613	99.6	72.686	79.93729	0.013757808
1614	99.65	72.797	79.87338	0.01373683
1615	99.7	74.722	80.12228	0.013382939
1616	99.75	74.367	80.63897	0.013446825
1617	99.8	72.175	81.294	0.013855213
1618	99.85	79.2	81.858	0.012626263
1619	99.9	72.672	82.11091	0.013760458
1620	99.95	73.738	81.92028	0.013561529
1621	100	70.655	81.24608	0.01415328
1622	100.05	72.87	80.26054	0.013723068
1623	100.1	65.894	79.26213	0.015175889
1624	100.15	68.293	78.4292	0.014642789
1625	100.2	77.005	77.80606	0.01298617
1626	100.25	76.078	77.36901	0.013144404
1627	100.3	72.92	77.07087	0.013713659
1628	100.35	72.623	76.8651	0.013769742
1629	100.4	71.007	76.71646	0.014083119
1630	100.45	77.813	76.60248	0.012851323
1631	100.5	74.189	76.51041	0.013479087
1632	100.55	71.527	76.43333	0.013980735
1633	100.6	74.465	76.36875	0.013429128
1634	100.65	78.806	76.31354	0.012689389
1635	100.7	76.422	76.2663	0.013085237
1636	100.75	70.033	76.22337	0.014278983
1637	100.8	74.256	76.18515	0.013466925
1638	100.85	72.577	76.1512	0.01377847
1639	100.9	80.05	76.12112	0.012492192
1640	100.95	78.779	76.09455	0.012693738
1641	101	72.518	76.07112	0.01378968
1642	101.05	74.734	76.05052	0.013380791
1643	101.1	82.04	76.0325	0.012189176
1644	101.15	78.258	76.01683	0.012778246
1645	101.2	68.921	76.00437	0.014509366
1646	101.25	75.151	75.99584	0.013306543
1647	101.3	76.53	75.98914	0.013066771
1648	101.35	77.462	75.98398	0.012909556
1649	101.4	78.199	75.97914	0.012787887
1650	101.45	88.628	75.97499	0.011283116
1651	101.5	71.861	75.972	0.013915754
1652	101.55	83.048	75.97018	0.012041229
1653	101.6	75.907	75.96896	0.013174016
1654	101.65	72.327	75.96929	0.013826095
1655	101.7	76.926	75.9712	0.012999506
1656	101.75	80.773	75.97477	0.012380375
1657	101.8	79.218	75.97938	0.012623394
1658	101.85	77.065	75.98509	0.012976059
1659	101.9	78.504	75.99198	0.012738204
1660	101.95	83.519	75.99998	0.011973323
1661	102	77.443	76.009	0.012912723
1662	102.05	77.956	76.01982	0.012827749
1663	102.1	83.706	76.03207	0.011946575
1664	102.15	81.603	76.04628	0.012254451
1665	102.2	85.612	76.06026	0.011680606
1666	102.25	78.11	76.07498	0.012802458
1667	102.3	83.657	76.09083	0.011953572
1668	102.35	74.862	76.10775	0.013357912
1669	102.4	77.743	76.12585	0.012862894
1670	102.45	81.736	76.14508	0.012234511
1671	102.5	72.194	76.16551	0.013851567
1672	102.55	66.761	76.18725	0.014978805
1673	102.6	79.149	76.21037	0.012634398
1674	102.65	72.084	76.23496	0.013872704
1675	102.7	72.734	76.26111	0.013748728
1676	102.75	73.865	76.28894	0.013538212
1677	102.8	75.956	76.31857	0.013165517
1678	102.85	81.041	76.35016	0.012339433
1679	102.9	78.734	76.38389	0.012700993
1680	102.95	79.296	76.41998	0.012610977
1681	103	78.771	76.45869	0.012695027
1682	103.05	74.923	76.50034	0.013347036
1683	103.1	74.069	76.54532	0.013500925
1684	103.15	82.459	76.56443	0.012127239
1685	103.2	78.159	76.6182	0.012794432
1686	103.25	81.964	76.67688	0.012200478
1687	103.3	86.277	76.74152	0.011590575
1688	103.35	73.463	76.81922	0.013612295
1689	103.4	76.419	76.90204	0.013085751
1690	103.45	69.532	76.9948	0.014381867
1691	103.5	70.504	77.10117	0.014183592
1692	103.55	68.446	77.22596	0.014610058
1693	103.6	74.739	77.34115	0.013379895
1694	103.65	72.522	77.53261	0.013788919
1695	103.7	78.967	77.78929	0.012663518
1696	103.75	73.952	78.15454	0.013522285
1697	103.8	73.767	78.69504	0.013556197
1698	103.85	80.572	79.49718	0.012411259
1699	103.9	75.1	80.64675	0.013315579
1700	103.95	74.775	82.18256	0.013373454
1701	104	79.232	84.00265	0.012621163
1702	104.05	76.236	85.72494	0.013117162
1703	104.1	81.468	86.75307	0.012274758
1704	104.15	84.164	86.78893	0.011881565
1705	104.2	81.369	86.0133	0.012289693
1706	104.25	84.577	84.74975	0.011823545
1707	104.3	85.918	83.39736	0.011639005
1708	104.35	84.184	82.31646	0.011878742
1709	104.4	85.258	81.70154	0.011729105
1710	104.45	85.183	81.61254	0.011739432
1711	104.5	83.216	82.05962	0.01201692
1712	104.55	93.413	83.02969	0.010705148
1713	104.6	91.266	84.43487	0.010956983
1714	104.65	94.882	86.03271	0.010539407
1715	104.7	96.837	87.42155	0.010326631
1716	104.75	103.223	88.25109	0.009687763
1717	104.8	95.361	88.30006	0.010486467
1718	104.85	89.65	87.50915	0.01115449
1719	104.9	86.616	86.24801	0.011545211
1720	104.95	88.506	85.07893	0.011298669
1721	105	88.537	84.37522	0.011294713
1722	105.05	86.326	84.30823	0.011583996
1723	105.1	83.045	84.97051	0.012041664
1724	105.15	79.049	86.43392	0.012650381
1725	105.2	81.693	88.73222	0.012240951
1726	105.25	86.756	91.74986	0.01152658
1727	105.3	89.15	95.0358	0.01121705
1728	105.35	91.055	97.83834	0.010982373
1729	105.4	88.409	99.59047	0.011311066
1730	105.45	87.447	100.11966	0.011435498
1731	105.5	93.068	99.41017	0.010744832
1732	105.55	89.832	97.55785	0.011131891
1733	105.6	88.865	94.97731	0.011253024
1734	105.65	87.648	92.37812	0.011409273
1735	105.7	86.045	90.32586	0.011621826
1736	105.75	84.206	89.02311	0.011875638
1737	105.8	85.425	88.43637	0.011706175
1738	105.85	86.984	88.45418	0.011496367
1739	105.9	82.549	88.96443	0.012114017
1740	105.95	91.604	89.89283	0.010916554
1741	106	80.102	91.2273	0.012484083
1742	106.05	89.79	93.01228	0.011137098
1743	106.1	92.266	95.35836	0.010838229
1744	106.15	96.001	98.48502	0.010416558
1745	106.2	103.771	102.79825	0.009636604
1746	106.25	98.861	109.01868	0.010115212
1747	106.3	113.136	118.32462	0.00883892
1748	106.35	133.381	132.41439	0.00749732
1749	106.4	149.812	153.35061	0.006675033
1750	106.45	186.469	183.04193	0.005362822
1751	106.5	215.841	222.05071	0.00463304
1752	106.55	257.986	267.0198	0.003876179
1753	106.6	306.89	308.10666	0.003258497
1754	106.65	348.834	334.82302	0.002866693
1755	106.7	366.141	347.83145	0.002731188
1756	106.75	366.369	352.81662	0.002729489
1757	106.8	323.378	345.52352	0.003092356
1758	106.85	285.184	317.38022	0.003506508
1759	106.9	244.766	272.78245	0.004085535
1760	106.95	212.397	225.50135	0.004708164
1761	107	191.409	185.23929	0.005224415
1762	107.05	157.381	154.94357	0.006354007
1763	107.1	139.007	133.82296	0.007193882
1764	107.15	124.502	119.77284	0.008031999
1765	107.2	122.375	110.58631	0.008171604
1766	107.25	117.378	104.49659	0.008519484
1767	107.3	107.344	100.30625	0.009315844
1768	107.35	113.339	97.29196	0.008823088
1769	107.4	106.944	95.04597	0.009350688
1770	107.45	95.422	93.35321	0.010479764
1771	107.5	102.333	92.06132	0.009772019
1772	107.55	93.881	91.08898	0.010651783
1773	107.6	91.347	90.38873	0.010947267
1774	107.65	92.678	89.89771	0.010790047
1775	107.7	89.284	89.60056	0.011200215
1776	107.75	95.35	89.48416	0.010487677
1777	107.8	89.571	89.54354	0.011164328
1778	107.85	90.012	89.78146	0.01110963
1779	107.9	89.067	90.20564	0.011227503
1780	107.95	89.894	90.84399	0.011124213
1781	108	94.48	91.72284	0.010584251
1782	108.05	91.041	92.89751	0.010984062
1783	108.1	90.718	94.43381	0.011023171
1784	108.15	91.444	96.44688	0.010935655
1785	108.2	97.146	99.11337	0.010293785
1786	108.25	99.983	102.74723	0.0100017
1787	108.3	101.142	107.91806	0.009887089
1788	108.35	108.88	115.63156	0.009184423
1789	108.4	134.924	127.51147	0.00741158
1790	108.45	148.075	145.8346	0.006753334
1791	108.5	174.51	173.17885	0.005730331
1792	108.55	213.199	211.39755	0.004690454
1793	108.6	271.232	259.71091	0.003686881
1794	108.65	335.876	310.5912	0.002977289
1795	108.7	382.311	345.8433	0.002615672
1796	108.75	375.089	345.94752	0.002666034
1797	108.8	328.439	311.70992	0.003044705
1798	108.85	260.745	262.24088	0.003835165
1799	108.9	219.041	214.74497	0.004565355
1800	108.95	181.992	176.94461	0.005494747
1801	109	142.277	150.02201	0.007028543
1802	109.05	128.783	132.31082	0.007765
1803	109.1	114.14	121.41943	0.00876117
1804	109.15	99.413	115.2776	0.010059047
1805	109.2	101.17	112.52728	0.009884353
1806	109.25	101.916	112.50518	0.009812002
1807	109.3	102.818	115.0247	0.009725923
1808	109.35	99.309	120.05078	0.010069581
1809	109.4	102.262	127.19927	0.009778803
1810	109.45	121.49	135.25327	0.00823113
1811	109.5	121.599	142.77163	0.008223752
1812	109.55	128.059	149.30204	0.007808901
1813	109.6	134.018	154.25369	0.007461684
1814	109.65	128.732	155.73671	0.007768076
1815	109.7	134.754	152.55662	0.00742093
1816	109.75	129.646	145.89665	0.007713312
1817	109.8	118.692	137.56676	0.008425168
1818	109.85	101.388	128.31512	0.0098631
1819	109.9	102.691	118.86709	0.009737952
1820	109.95	99.792	110.39214	0.010020843
1821	110	102.072	103.63909	0.009797006
1822	110.05	94.348	98.67864	0.010599059
1823	110.1	89.961	95.2203	0.011115928
1824	110.15	91.054	92.88565	0.010982494
1825	110.2	87.652	91.34132	0.011408753
1826	110.25	82.101	90.33174	0.01218012
1827	110.3	79.092	89.69562	0.012643504
1828	110.35	90.567	89.32301	0.011041549
1829	110.4	91.604	89.15506	0.010916554
1830	110.45	91.951	89.15853	0.010875358
1831	110.5	86.093	89.32055	0.011615346
1832	110.55	88.287	89.6391	0.011326696
1833	110.6	92.591	90.1218	0.010800186
1834	110.65	94.447	90.78701	0.010587949
1835	110.7	96.762	91.66593	0.010334635
1836	110.75	93.933	92.80739	0.010645886
1837	110.8	96.787	94.29983	0.010331966
1838	110.85	96.305	96.28282	0.010383677
1839	110.9	98.687	98.99563	0.010133047
1840	110.95	106.331	102.80049	0.009404595
1841	111	105.362	108.20664	0.009491088
1842	111.05	112.234	115.82195	0.008909956
1843	111.1	126.053	126.20636	0.007933171
1844	111.15	134.762	139.51605	0.007420489
1845	111.2	147.445	154.72516	0.00678219
1846	111.25	177.971	169.07427	0.005618893
1847	111.3	199.242	180.10702	0.005019022
1848	111.35	202.78	188.8863	0.004931453
1849	111.4	194.601	198.25942	0.00513872
1850	111.45	210.394	209.37419	0.004752987
1851	111.5	218.982	222.79021	0.004566585
1852	111.55	236.224	240.53845	0.00423327
1853	111.6	256.407	263.55976	0.00390005
1854	111.65	285.346	289.29917	0.003504517
1855	111.7	317.312	312.41681	0.003151472
1856	111.75	318.875	325.72681	0.003136025
1857	111.8	328.41	323.99896	0.003044974
1858	111.85	304.653	307.89104	0.003282423
1859	111.9	284.964	282.09313	0.003509215
1860	111.95	261.424	251.25256	0.003825204
1861	112	225.516	219.80998	0.004434275
1862	112.05	197.106	192.48027	0.005073412
1863	112.1	191.149	172.42469	0.005231521
1864	112.15	174.417	160.74372	0.005733386
1865	112.2	169.051	157.48621	0.005915375
1866	112.25	172.669	162.44019	0.005791428
1867	112.3	182.259	175.21042	0.005486698
1868	112.35	199.612	194.35113	0.005009719
1869	112.4	203.213	215.61611	0.004920945
1870	112.45	227.571	231.23041	0.004394233
1871	112.5	229.37	233.5243	0.004359768
1872	112.55	225.381	220.84107	0.004436931
1873	112.6	205.318	199.01922	0.004870494
1874	112.65	179.648	176.1488	0.005566441
1875	112.7	173.16	157.58676	0.005775006
1876	112.75	147.799	145.42261	0.006765946
1877	112.8	140.804	139.773	0.007102071
1878	112.85	140.564	139.77809	0.007114197
1879	112.9	149.357	143.77127	0.006695367
1880	112.95	143.62	148.70361	0.006962819
1881	113	148.898	150.34696	0.006716007
1882	113.05	149.464	146.3375	0.006690574
1883	113.1	130.93	138.35416	0.007637669
1884	113.15	132.908	129.71792	0.007524002
1885	113.2	128.265	122.7792	0.007796359
1886	113.25	120.193	118.63157	0.008319952
1887	113.3	132.56	117.74202	0.007543754
1888	113.35	126.017	120.50296	0.007935437
1889	113.4	118.404	127.50063	0.008445661
1890	113.45	144.553	139.46574	0.006917878
1891	113.5	161.685	156.84971	0.006184866
1892	113.55	190.704	178.83092	0.005243729
1893	113.6	214.472	201.34164	0.004662613
1894	113.65	232.259	215.80045	0.004305538
1895	113.7	254.474	214.24994	0.003929675
1896	113.75	245.282	197.81046	0.00407694
1897	113.8	211.145	174.63052	0.004736082
1898	113.85	177.537	152.0153	0.005632629
1899	113.9	147.439	133.49744	0.006782466
1900	113.95	116.223	119.78215	0.008604149
1901	114	114.31	110.228	0.008748141
1902	114.05	108.556	103.79138	0.009211835
1903	114.1	93.497	99.48807	0.01069553
1904	114.15	92.345	96.56902	0.010828957
1905	114.2	86.771	94.53685	0.011524588
1906	114.25	88.781	93.09039	0.011263671
1907	114.3	85.822	92.05661	0.011652024
1908	114.35	89.663	91.3381	0.011152872
1909	114.4	88.687	90.88104	0.01127561
1910	114.45	93.766	90.66026	0.010664847
1911	114.5	82.568	90.67303	0.01211123
1912	114.55	85.411	90.94264	0.011708094
1913	114.6	89.374	91.52959	0.011188936
1914	114.65	87.139	92.54906	0.011475918
1915	114.7	88.204	94.19173	0.011337354
1916	114.75	87.78	96.73401	0.011392117
1917	114.8	93.561	100.51711	0.010688214
1918	114.85	97.149	105.86642	0.010293467
1919	114.9	101.755	112.89235	0.009827527
1920	114.95	104.809	121.05571	0.009541165
1921	115	105.568	128.59307	0.009472567
1922	115.05	116.249	132.84963	0.008602225
1923	115.1	110.94	132.34743	0.009013881
1924	115.15	117.702	128.3127	0.008496032
1925	115.2	121.277	123.50284	0.008245587
1926	115.25	121.823	120.26957	0.008208631
1927	115.3	120.879	119.87958	0.008272736
1928	115.35	108.665	122.63128	0.009202595
1929	115.4	118.383	127.87167	0.008447159
1930	115.45	126.237	133.6669	0.007921608
1931	115.5	127.471	137.03859	0.007844922
1932	115.55	125.026	135.89372	0.007998336
1933	115.6	120.323	130.80428	0.008310963
1934	115.65	122.779	124.15736	0.008144715
1935	115.7	118.352	118.18189	0.008449371
1936	115.75	121.286	114.13735	0.008244975
1937	115.8	118.85	112.5248	0.008413967
1938	115.85	115.517	113.4795	0.008656735
1939	115.9	114.263	116.99554	0.008751739
1940	115.95	118.514	122.90907	0.008437822
1941	116	124.78	130.56927	0.008014105
1942	116.05	133.268	138.2846	0.007503677
1943	116.1	137.858	143.68192	0.007253841
1944	116.15	144.587	145.98858	0.006916251
1945	116.2	149.69	147.19974	0.006680473
1946	116.25	166.416	150.27881	0.006009038
1947	116.3	175.753	157.42021	0.005689803
1948	116.35	195.193	169.37858	0.005123135
1949	116.4	201.563	185.08808	0.004961228
1950	116.45	219.696	202.3535	0.004551744
1951	116.5	244.332	219.98994	0.004092792
1952	116.55	252.879	237.26045	0.00395446
1953	116.6	261.16	250.052	0.00382907
1954	116.65	241.903	251.86484	0.004133888
1955	116.7	232.913	241.71445	0.004293449
1956	116.75	224.141	226.14319	0.004461477
1957	116.8	210.324	212.81257	0.004754569
1958	116.85	217.02	206.10674	0.00460787
1959	116.9	225.205	206.63605	0.004440399
1960	116.95	238.635	212.79265	0.0041905
1961	117	245.083	223.02868	0.00408025
1962	117.05	254.342	235.31576	0.003931714
1963	117.1	257.873	244.22055	0.003877878
1964	117.15	246.593	242.4939	0.004055265
1965	117.2	222.435	228.06226	0.004495695
1966	117.25	200.829	205.66425	0.004979361
1967	117.3	170.427	181.77513	0.005867615
1968	117.35	159.099	160.85973	0.006285395
1969	117.4	154.357	144.79915	0.006478488
1970	117.45	142.103	133.77556	0.007037149
1971	117.5	135.276	127.26911	0.007392294
1972	117.55	134.1	124.69307	0.007457122
1973	117.6	133.766	125.66803	0.007475741
1974	117.65	141.074	130.02052	0.007088478
1975	117.7	150.282	137.50174	0.006654157
1976	117.75	155.67	147.24734	0.006423845
1977	117.8	162.593	157.40811	0.006150326
1978	117.85	161.057	165.44892	0.006208982
1979	117.9	167.77	168.48203	0.005960541
1980	117.95	161.055	164.5497	0.006209059
1981	118	157.852	154.88455	0.006335048
1982	118.05	142.096	142.97097	0.007037496
1983	118.1	120.068	131.81536	0.008328614
1984	118.15	121.108	122.96497	0.008257093
1985	118.2	123.181	116.84247	0.008118135
1986	118.25	124.626	113.31882	0.008024008
1987	118.3	115.867	112.15698	0.008630585
1988	118.35	108.995	113.26767	0.009174733
1989	118.4	113.131	116.81862	0.00883931
1990	118.45	119.702	123.2321	0.008354079
1991	118.5	137.164	133.05895	0.007290543
1992	118.55	139.611	146.64384	0.007162759
1993	118.6	167.659	163.43614	0.005964487
1994	118.65	184.262	181.12535	0.005427055
1995	118.7	208.691	195.61042	0.004791773
1996	118.75	210.396	202.70098	0.004752942
1997	118.8	211.629	200.81295	0.00472525
1998	118.85	221.215	191.3657	0.004520489
1999	118.9	202.95	176.80835	0.004927322
2000	118.95	179.781	160.08201	0.005562323
2001	119	162.797	144.12154	0.006142619
2002	119.05	147.414	130.77854	0.006783616
2003	119.1	141.209	120.65735	0.007081702
2004	119.15	125.051	113.58022	0.007996737
2005	119.2	115.705	109.04942	0.008642669
2006	119.25	111.643	106.529	0.008957122
2007	119.3	105.038	105.54158	0.009520364
2008	119.35	103.91	105.63886	0.009623713
2009	119.4	104.81	106.39919	0.009541074
2010	119.45	106.047	107.6191	0.009429781
2011	119.5	104.071	109.46307	0.009608825
2012	119.55	103.559	112.31557	0.009656331
2013	119.6	114.338	116.60678	0.008745999
2014	119.65	113.023	122.58292	0.008847757
2015	119.7	124.875	129.78221	0.008008008
2016	119.75	127.069	136.52774	0.00786974
2017	119.8	135.846	140.40286	0.007361277
2018	119.85	139.499	139.82055	0.00716851
2019	119.9	139.903	135.08163	0.00714781
2020	119.95	123.899	128.04855	0.00807109
2021	120	131.327	120.77673	0.00761458
2022	120.05	121.089	114.48065	0.008258388
2023	120.1	110.502	109.48928	0.00904961
2024	120.15	115.597	105.63498	0.008650744
2025	120.2	105.952	102.53313	0.009438236
2026	120.25	106.54	99.82496	0.009386146
2027	120.3	98.883	97.39745	0.010112962
2028	120.35	98.328	95.31495	0.010170043
2029	120.4	105.902	93.64402	0.009442692
2030	120.45	104.425	92.39273	0.009576251
2031	120.5	99.578	91.5242	0.010042379
2032	120.55	94.564	90.98224	0.010574849
2033	120.6	97.543	90.71223	0.010251889
2034	120.65	92.275	90.67206	0.010837171
2035	120.7	101.783	90.83609	0.009824823
2036	120.75	94.453	91.19565	0.010587276
2037	120.8	97.187	91.75905	0.010289442
2038	120.85	100.246	92.55284	0.00997546
2039	120.9	108.664	93.62869	0.00920268
2040	120.95	112.076	95.07318	0.008922517
2041	121	112.339	97.02995	0.008901628
2042	121.05	104.523	99.73117	0.009567272
2043	121.1	121.722	103.53317	0.008215442
2044	121.15	137.053	108.93543	0.007296447
2045	121.2	127.326	116.57354	0.007853855
2046	121.25	148.567	127.13141	0.00673097
2047	121.3	158.878	141.10344	0.006294138
2048	121.35	165.976	158.23801	0.006024967
2049	121.4	183.773	176.50706	0.005441496
2050	121.45	192.424	191.2263	0.005196857
2051	121.5	201.224	196.68476	0.004969586
2052	121.55	185.057	190.81467	0.00540374
2053	121.6	183.534	176.90119	0.005448582
2054	121.65	169.714	160.05812	0.005892266
2055	121.7	164.398	144.08539	0.006082799
2056	121.75	154.928	130.84684	0.006454611
2057	121.8	132.174	120.80503	0.007565784
2058	121.85	131.847	113.65292	0.007584549
2059	121.9	128.682	108.8018	0.007771095
2060	121.95	124.355	105.66203	0.008041494
2061	122	116.026	103.76233	0.008618758
2062	122.05	114.298	102.7754	0.008749059
2063	122.1	116.135	102.50353	0.008610669
2064	122.15	107.752	102.85477	0.00928057
2065	122.2	115.853	103.82524	0.008631628
2066	122.25	121.671	105.48352	0.008218885
2067	122.3	126.176	108.00515	0.007925437
2068	122.35	119.873	111.63165	0.008342162
2069	122.4	124.093	116.68566	0.008058472
2070	122.45	128.218	123.53648	0.007799217
2071	122.5	134.109	132.51829	0.007456621
2072	122.55	146.06	143.69532	0.006846501
2073	122.6	149.651	156.41316	0.006682214
2074	122.65	159.4	169.2647	0.006273526
2075	122.7	179.296	181.37773	0.005577369
2076	122.75	185.856	193.88316	0.00538051
2077	122.8	204.223	209.06906	0.004896608
2078	122.85	225.371	228.05189	0.004437128
2079	122.9	259.584	248.86406	0.003852318
2080	122.95	265.366	266.4485	0.00376838
2081	123	284.422	275.9572	0.003515902
2082	123.05	264.407	275.98406	0.003782048
2083	123.1	267.398	268.58075	0.003739744
2084	123.15	271.52	258.32222	0.00368297
2085	123.2	251.235	250.24923	0.003980337
2086	123.25	244.43	247.1488	0.004091151
2087	123.3	238.251	248.04727	0.004197254
2088	123.35	247.707	248.79285	0.004037028
2089	123.4	246.189	245.06113	0.00406192
2090	123.45	222.111	234.86957	0.004502253
2091	123.5	217.759	218.73777	0.004592233
2092	123.55	195.085	199.25133	0.005125971
2093	123.6	178.103	179.71132	0.005614729
2094	123.65	162.203	162.5505	0.006165114
2095	123.7	157.622	148.9075	0.006344292
2096	123.75	142.758	139.00008	0.007004861
2097	123.8	138.878	132.5982	0.007200565
2098	123.85	133.353	129.37623	0.007498894
2099	123.9	141.604	129.1241	0.007061947
2100	123.95	146.67	131.81954	0.006818027
2101	124	146.555	137.57444	0.006823377
2102	124.05	154.89	146.4301	0.006456195
2103	124.1	168.311	157.90652	0.005941382
2104	124.15	174.111	170.31492	0.005743463
2105	124.2	187.851	180.51371	0.005323368
2106	124.25	187.155	185.11833	0.005343165
2107	124.3	181.478	182.43163	0.00551031
2108	124.35	177.263	173.38683	0.005641335
2109	124.4	169.155	160.80667	0.005911738
2110	124.45	162.237	147.62655	0.006163822
2111	124.5	151.507	135.78015	0.006600355
2112	124.55	137.971	126.11855	0.0072479
2113	124.6	125.195	118.78206	0.007987539
2114	124.65	119.55	113.51393	0.008364701
2115	124.7	116.384	109.91678	0.008592246
2116	124.75	124.874	107.61672	0.008008072
2117	124.8	121.344	106.33052	0.008241034
2118	124.85	122.14	105.88482	0.008187326
2119	124.9	114.547	106.21828	0.008730041
2120	124.95	116.143	107.38194	0.008610076
2121	125	119.305	109.54354	0.008381878
2122	125.05	120.913	112.98015	0.008270409
2123	125.1	132.978	118.07111	0.007520041
2124	125.15	136.502	125.25466	0.0073259
2125	125.2	150.369	134.89602	0.006650307
2126	125.25	153.181	147.01132	0.006528225
2127	125.3	162.028	160.73081	0.006171773
2128	125.35	177.829	173.74452	0.00562338
2129	125.4	180.812	182.696	0.005530606
2130	125.45	188.653	184.88962	0.005300737
2131	125.5	188.054	179.87405	0.005317622
2132	125.55	171.405	169.54217	0.005834136
2133	125.6	159.158	156.84168	0.006283065
2134	125.65	155.215	144.31059	0.006442676
2135	125.7	143.091	133.41908	0.00698856
2136	125.75	131.063	124.72178	0.007629918
2137	125.8	130.168	118.1958	0.00768238
2138	125.85	128.634	113.5328	0.007773994
2139	125.9	115.67	110.34176	0.008645284
2140	125.95	115.74	108.26464	0.008640055
2141	126	110.592	107.01737	0.009042245
2142	126.05	108.898	106.39977	0.009182905
2143	126.1	109.294	106.2822	0.009149633
2144	126.15	114.016	106.59069	0.008770699
2145	126.2	115.014	107.29529	0.008694594
2146	126.25	124.092	108.40166	0.008058537
2147	126.3	120.058	109.95068	0.008329308
2148	126.35	120.344	112.02525	0.008309513
2149	126.4	117.969	114.76474	0.008476803
2150	126.45	123.528	118.38598	0.008095331
2151	126.5	129.318	123.20669	0.007732876
2152	126.55	141.884	129.66496	0.007048011
2153	126.6	147.495	138.32172	0.006779891
2154	126.65	159.84	149.8266	0.006256256
2155	126.7	176.288	164.79926	0.005672536
2156	126.75	192.309	183.52033	0.005199965
2157	126.8	209.349	205.30248	0.004776713
2158	126.85	233.553	227.80053	0.004281683
2159	126.9	236.396	247.47938	0.00423019
2160	126.95	269.643	261.71561	0.003708607
2161	127	260.661	269.61323	0.003836401
2162	127.05	263.258	270.34381	0.003798555
2163	127.1	260.332	263.06155	0.003841249
2164	127.15	244.857	249.04616	0.004084016
2165	127.2	231.012	231.78827	0.004328779
2166	127.25	215.757	214.88123	0.004634844
2167	127.3	201.044	200.72061	0.004974036
2168	127.35	197.122	190.50138	0.005073
2169	127.4	194.16	184.62385	0.005150391
2170	127.45	190.378	183.11335	0.005252708
2171	127.5	201.814	185.95159	0.004955058
2172	127.55	192.97	193.35255	0.005182153
2173	127.6	213.502	205.94129	0.004683797
2174	127.65	236.799	224.85912	0.004222991
2175	127.7	268.963	251.7797	0.003717984
2176	127.75	298.487	288.81016	0.00335023
2177	127.8	340.663	338.17381	0.002935452
2178	127.85	391.903	401.38845	0.002551652
2179	127.9	477.09	477.44768	0.002096041
2180	127.95	568.445	560.08576	0.001759185
2181	128	639.483	637.16625	0.001563763
2182	128.05	689.927	696.73979	0.001449429
2183	128.1	762.852	734.90206	0.00131087
2184	128.15	775.022	753.44896	0.001290286
2185	128.2	775.566	751.51025	0.001289381
2186	128.25	736.536	724.53924	0.001357707
2187	128.3	679.726	671.24722	0.001471181
2188	128.35	579.578	598.6116	0.001725393
2189	128.4	498.588	518.51376	0.002005664
2190	128.45	443.552	441.41726	0.002254527
2191	128.5	381.684	373.62171	0.002619968
2192	128.55	316.065	317.67355	0.003163906
2193	128.6	275.797	273.58947	0.003625855
2194	128.65	252.161	239.96714	0.00396572
2195	128.7	237.338	214.84544	0.0042134
2196	128.75	205.816	196.28456	0.004858709
2197	128.8	192.17	182.63209	0.005203726
2198	128.85	181.731	172.62362	0.005502639
2199	128.9	171.007	165.33636	0.005847714
2200	128.95	163.832	160.13518	0.006103814
2201	129	158.402	156.60058	0.006313052
2202	129.05	150.768	154.46949	0.006632707
2203	129.1	158.572	153.59205	0.006306284
2204	129.15	156.39	153.90504	0.006394271
2205	129.2	159.586	155.41975	0.006266214
2206	129.25	165.296	158.2234	0.006049753
2207	129.3	169.109	162.49501	0.005913346
2208	129.35	178.975	168.53815	0.005587373
2209	129.4	175.521	176.83769	0.005697324
2210	129.45	190.196	188.14147	0.005257734
2211	129.5	203.318	203.54539	0.004918404
2212	129.55	217.051	224.58723	0.004607212
2213	129.6	258.003	253.28982	0.003875924
2214	129.65	307.452	292.10723	0.00325254
2215	129.7	346.752	343.69041	0.002883906
2216	129.75	399.425	410.30704	0.002503599
2217	129.8	477.656	492.54694	0.002093557
2218	129.85	574.37	586.78496	0.001741038
2219	129.9	710.461	681.76475	0.001407537
2220	129.95	811.718	757.88286	0.001231955
2221	130	856.803	794.40435	0.001167129
2222	130.05	861.728	781.79074	0.001160459
2223	130.1	801.074	727.05443	0.001248324
2224	130.15	732.202	647.10347	0.001365743
2225	130.2	622.059	558.80792	0.001607565
2226	130.25	514.417	474.1693	0.001943948
2227	130.3	433.765	399.98891	0.002305396
2228	130.35	359.185	338.99763	0.002784081
2229	130.4	296.531	291.07543	0.003372329
2230	130.45	253.531	254.40188	0.003944291
2231	130.5	219.233	226.47561	0.004561357
2232	130.55	193.955	204.93874	0.005155835
2233	130.6	174.043	188.03809	0.005745707
2234	130.65	158.389	174.61911	0.00631357
2235	130.7	144.619	163.8801	0.006914721
2236	130.75	141.263	155.15891	0.007078994
2237	130.8	134.661	147.84547	0.007426055
2238	130.85	130.22	141.43434	0.007679312
2239	130.9	135.7	135.63748	0.007369197
2240	130.95	119.924	130.37748	0.008338614
2241	131	107.937	125.66582	0.009264664
2242	131.05	104.643	121.51403	0.009556301
2243	131.1	110.581	117.9069	0.009043145
2244	131.15	116.044	114.80531	0.008617421
2245	131.2	104.234	112.15503	0.009593799
2246	131.25	100.188	109.89498	0.009981235
2247	131.3	97.969	107.96457	0.01020731
2248	131.35	97.915	106.30904	0.01021294
2249	131.4	93.252	104.882	0.010723631
2250	131.45	99.821	103.64564	0.010017932
2251	131.5	98.453	102.56972	0.010157131
2252	131.55	104.09	101.63075	0.009607071
2253	131.6	97.193	100.81038	0.010288807
2254	131.65	93.381	100.09429	0.010708817
2255	131.7	95.341	99.47121	0.010488667
2256	131.75	94.224	98.93094	0.010613007
2257	131.8	89.987	98.46766	0.011112716
2258	131.85	98.367	98.0769	0.010166011
2259	131.9	108.634	97.75418	0.009205221
2260	131.95	95.66	97.49625	0.01045369
2261	132	92.99	97.30113	0.010753844
2262	132.05	94.495	97.16796	0.010582571
2263	132.1	88.73	97.09702	0.011270145
2264	132.15	91.604	97.08975	0.010916554
2265	132.2	97.553	97.14899	0.010250838
2266	132.25	100.523	97.2792	0.009947972
2267	132.3	99.508	97.48608	0.010049443
2268	132.35	90.441	97.78001	0.011056932
2269	132.4	95.852	98.17446	0.01043275
2270	132.45	96.895	98.6904	0.01032045
2271	132.5	96.925	99.35493	0.010317256
2272	132.55	98.921	100.2068	0.010109077
2273	132.6	107.177	101.2987	0.00933036
2274	132.65	101.257	102.69947	0.00987586
2275	132.7	107.612	104.49444	0.009292644
2276	132.75	108.126	106.78258	0.009248469
2277	132.8	112.592	109.66735	0.008881626
2278	132.85	120.026	113.23491	0.008331528
2279	132.9	122.573	117.50764	0.008158404
2280	132.95	133.615	122.36303	0.00748419
2281	133	138.429	127.45498	0.00722392
2282	133.05	141.368	132.25044	0.007073737
2283	133.1	143.951	136.26588	0.006946808
2284	133.15	154.51	139.29431	0.006472073
2285	133.2	149.537	141.33123	0.006687308
2286	133.25	154.69	142.40609	0.006464542
2287	133.3	152.735	142.66234	0.006547288
2288	133.35	159.908	142.53435	0.006253596
2289	133.4	151.319	142.69588	0.006608555
2290	133.45	153.103	143.864	0.006531551
2291	133.5	144.757	146.65384	0.006908129
2292	133.55	154.129	151.55229	0.006488072
2293	133.6	162.698	158.9092	0.006146357
2294	133.65	164.297	168.86553	0.006086538
2295	133.7	172.768	181.21486	0.005788109
2296	133.75	184.56	195.1345	0.005418292
2297	133.8	211.591	209.15497	0.004726099
2298	133.85	223.426	221.70691	0.004475755
2299	133.9	231.114	232.07173	0.004326869
2300	133.95	240.553	240.66517	0.004157088
2301	134	244.422	248.26912	0.004091285
2302	134.05	250.274	255.2334	0.003995621
2303	134.1	264.419	261.56682	0.003781876
2304	134.15	269.427	267.60021	0.003711581
2305	134.2	272.98	274.14009	0.003663272
2306	134.25	279.604	281.87215	0.003576487
2307	134.3	277.654	290.84959	0.003601605
2308	134.35	276.927	300.40996	0.00361106
2309	134.4	291.46	309.08639	0.003431003
2310	134.45	302.285	314.79323	0.003308136
2311	134.5	306.232	315.81431	0.003265498
2312	134.55	303.685	311.86533	0.003292886
2313	134.6	301.665	303.84066	0.003314935
2314	134.65	302.418	292.52569	0.003306681
2315	134.7	283.023	278.07541	0.003533282
2316	134.75	273.701	260.67141	0.003653622
2317	134.8	264.812	241.24284	0.003776264
2318	134.85	238.061	221.29404	0.004200604
2319	134.9	213.879	202.25814	0.004675541
2320	134.95	187.339	185.10266	0.005337917
2321	135	170.332	170.30628	0.005870887
2322	135.05	167.196	157.98797	0.005981004
2323	135.1	158.989	148.04231	0.006289743
2324	135.15	142.695	140.21413	0.007007954
2325	135.2	139.351	134.19508	0.007176124
2326	135.25	144.291	129.68169	0.006930439
2327	135.3	133.513	126.40305	0.007489907
2328	135.35	119.92	124.1457	0.008338893
2329	135.4	119.148	122.75748	0.008392923
2330	135.45	122.514	122.14754	0.008162332
2331	135.5	122.13	122.28407	0.008187996
2332	135.55	114.14	123.19373	0.00876117
2333	135.6	113.23	124.96225	0.008831582
2334	135.65	122.164	127.73306	0.008185718
2335	135.7	129.916	131.70656	0.007697281
2336	135.75	138.7	137.13309	0.007209805
2337	135.8	141.141	144.29669	0.007085113
2338	135.85	154.352	153.48161	0.006478698
2339	135.9	166.547	164.90415	0.006004311
2340	135.95	170.38	178.58048	0.005869233
2341	136	192.827	194.11254	0.005185996
2342	136.05	210.808	210.46693	0.004743653
2343	136.1	233.363	226.0119	0.004285169
2344	136.15	245.14	239.0927	0.004079302
2345	136.2	270.076	248.90197	0.003702661
2346	136.25	278.391	255.80594	0.00359207
2347	136.3	277.611	260.78699	0.003602163
2348	136.35	298.899	264.42924	0.003345612
2349	136.4	295.335	266.31357	0.003385985
2350	136.45	294.843	265.25361	0.003391636
2351	136.5	294.504	260.22911	0.00339554
2352	136.55	289.604	251.23755	0.003452991
2353	136.6	274.921	239.29267	0.003637409
2354	136.65	246.73	225.77391	0.004053013
2355	136.7	222.362	211.87514	0.004497171
2356	136.75	208.811	198.49162	0.00478902
2357	136.8	178.094	186.30326	0.005615012
2358	136.85	163.963	175.78819	0.006098937
2359	136.9	161.432	167.15481	0.006194559
2360	136.95	140.615	160.29216	0.007111617
2361	137	137.209	154.80513	0.007288152
2362	137.05	134.268	150.16705	0.007447791
2363	137.1	118.986	145.94957	0.00840435
2364	137.15	117.004	141.9762	0.008546716
2365	137.2	115.878	138.28202	0.008629766
2366	137.25	114.978	134.95952	0.008697316
2367	137.3	109.981	132.02521	0.00909248
2368	137.35	113.076	129.37141	0.00884361
2369	137.4	109.223	126.81379	0.009155581
2370	137.45	99.647	124.2056	0.010035425
2371	137.5	99.207	121.52655	0.010079934
2372	137.55	98.429	118.8765	0.010159607
2373	137.6	99.07	116.39684	0.010093873
2374	137.65	100.324	114.22086	0.009967705
2375	137.7	94.558	112.44652	0.01057552
2376	137.75	99.881	111.1442	0.010011914
2377	137.8	100.918	110.36543	0.009909035
2378	137.85	96.977	110.14989	0.010311723
2379	137.9	98.527	110.52996	0.010149502
2380	137.95	103.26	111.53091	0.009684292
2381	138	106.762	113.1652	0.009366629
2382	138.05	109.11	115.41496	0.009165063
2383	138.1	123.955	118.20552	0.008067444
2384	138.15	116.719	121.38286	0.008567585
2385	138.2	121.053	124.73171	0.008260844
2386	138.25	122.517	128.04117	0.008162133
2387	138.3	125.445	131.15687	0.007971621
2388	138.35	123.963	133.94642	0.008066923
2389	138.4	131.201	136.21783	0.007621893
2390	138.45	118.134	137.71007	0.008464964
2391	138.5	127.711	138.19466	0.007830179
2392	138.55	133.255	137.59816	0.007504409
2393	138.6	130.682	136.03022	0.007652163
2394	138.65	133.187	133.68952	0.00750824
2395	138.7	127.44	130.75991	0.00784683
2396	138.75	124.136	127.39158	0.008055681
2397	138.8	117.733	123.74884	0.008493795
2398	138.85	116.085	120.03064	0.008614377
2399	138.9	119.051	116.43678	0.008399761
2400	138.95	108.429	113.12411	0.009222625
2401	139	106.833	110.1884	0.009360404
2402	139.05	104.481	107.67067	0.009571118
2403	139.1	99.663	105.57287	0.010033814
2404	139.15	99.259	103.87247	0.010074653
2405	139.2	101.685	102.53336	0.009834292
2406	139.25	104.094	101.51337	0.009606702
2407	139.3	97.897	100.77058	0.010214818
2408	139.35	97.029	100.26768	0.010306197
2409	139.4	95.269	99.97475	0.010496594
2410	139.45	91.539	99.87097	0.010924305
2411	139.5	94.066	99.94549	0.010630834
2412	139.55	100.346	100.19822	0.009965519
2413	139.6	96.113	100.64062	0.01040442
2414	139.65	97.442	101.29129	0.010262515
2415	139.7	99.585	102.19539	0.010041673
2416	139.75	101.966	103.40298	0.009807191
2417	139.8	100.77	104.97729	0.009923588
2418	139.85	104.573	106.99319	0.009562698
2419	139.9	102.148	109.53208	0.009789717
2420	139.95	102.708	112.67405	0.00973634
2421	140	105.233	116.48501	0.009502723
2422	140.05	108.586	120.99456	0.00920929
2423	140.1	123.811	126.15864	0.008076827
2424	140.15	123.5	131.8016	0.008097166
2425	140.2	123.452	137.54721	0.008100314
2426	140.25	128.204	142.78779	0.007800069
2427	140.3	133.739	146.77859	0.00747725
2428	140.35	133.883	148.8915	0.007469208
2429	140.4	136.303	148.88814	0.007336596
2430	140.45	132.195	146.99318	0.007564583
2431	140.5	129.048	143.73329	0.007749055
2432	140.55	118.2	139.71031	0.008460237
2433	140.6	123.555	135.45371	0.008093562
2434	140.65	115.461	131.37099	0.008660933
2435	140.7	117.347	127.75304	0.008521735
2436	140.75	113.426	124.7966	0.008816321
2437	140.8	117.009	122.62787	0.008546351
2438	140.85	119.73	121.32472	0.008352126
2439	140.9	111.882	120.93804	0.008937988
2440	140.95	115.825	121.51105	0.008633715
2441	141	114.522	123.09381	0.008731947
2442	141.05	130.664	125.75024	0.007653217
2443	141.1	130.308	129.55738	0.007674126
2444	141.15	136.965	134.59548	0.007301135
2445	141.2	135.5	140.92557	0.007380074
2446	141.25	144.301	148.55773	0.006929959
2447	141.3	147.088	157.38814	0.006798651
2448	141.35	160.058	167.11887	0.006247735
2449	141.4	175.233	177.18078	0.005706688
2450	141.45	181.751	186.71685	0.005502033
2451	141.5	187.733	194.70069	0.005326714
2452	141.55	206.522	200.19763	0.004842099
2453	141.6	219.193	202.65763	0.004562189
2454	141.65	215.784	202.0957	0.004634264
2455	141.7	216.282	199.01225	0.004623593
2456	141.75	225.915	194.13854	0.004426444
2457	141.8	212.346	188.17216	0.004709295
2458	141.85	202.13	181.61153	0.004947311
2459	141.9	192.656	174.75386	0.005190599
2460	141.95	188.311	167.79781	0.005310364
2461	142	178.031	160.94483	0.005616999
2462	142.05	166.153	154.43094	0.006018549
2463	142.1	161.807	148.49259	0.006180202
2464	142.15	163.755	143.31728	0.006106684
2465	142.2	161.44	139.03413	0.006194252
2466	142.25	140.795	135.69948	0.007102525
2467	142.3	145.347	133.32377	0.006880087
2468	142.35	130.905	131.86453	0.007639128
2469	142.4	136.195	131.23235	0.007342413
2470	142.45	140.63	131.28066	0.007110858
2471	142.5	136.283	131.7977	0.007337672
2472	142.55	135.379	132.51296	0.00738667
2473	142.6	133.62	133.13181	0.00748391
2474	142.65	138.288	133.39897	0.007231285
2475	142.7	137.026	133.16837	0.007297885
2476	142.75	127.597	132.44039	0.007837175
2477	142.8	121.704	131.34349	0.008216657
2478	142.85	119.695	130.07677	0.008354568
2479	142.9	132.538	128.8503	0.007545006
2480	142.95	119.419	127.84755	0.008373877
2481	143	125.048	127.20913	0.007996929
2482	143.05	115.989	127.02703	0.008621507
2483	143.1	121.028	127.34005	0.008262551
2484	143.15	130.095	128.12758	0.00768669
2485	143.2	124.852	129.30648	0.008009483
2486	143.25	118.109	130.74106	0.008466755
2487	143.3	119.969	132.28837	0.008335487
2488	143.35	137.27	133.84435	0.007284913
2489	143.4	135.104	135.38721	0.007401705
2490	143.45	128.177	136.97649	0.007801712
2491	143.5	135.572	138.70111	0.007376154
2492	143.55	128.61	140.63402	0.007775445
2493	143.6	139.696	142.80748	0.007158401
2494	143.65	146.659	145.2251	0.006818538
2495	143.7	154.28	147.89794	0.006481722
2496	143.75	152.489	150.87101	0.00655785
2497	143.8	153.692	154.21029	0.00650652
2498	143.85	152.278	157.95056	0.006566937
2499	143.9	157.21	162.03014	0.006360919
2500	143.95	161.249	166.24376	0.006201589
2501	144	170.688	170.24135	0.005858643
2502	144.05	170.676	173.58864	0.005859055
2503	144.1	161.089	175.8766	0.006207749
2504	144.15	162.282	176.83572	0.006162113
2505	144.2	164.333	176.40873	0.006085205
2506	144.25	167.906	174.75629	0.005955713
2507	144.3	172.959	172.19501	0.005781717
2508	144.35	161.451	169.09674	0.00619383
2509	144.4	161.449	165.79211	0.006193906
2510	144.45	158.745	162.50889	0.006299411
2511	144.5	164.688	159.35515	0.006072088
2512	144.55	160.229	156.34459	0.006241067
2513	144.6	161.458	153.45043	0.006193561
2514	144.65	150.81	150.66104	0.00663086
2515	144.7	157.908	148.00299	0.006332801
2516	144.75	162.171	145.52488	0.006166331
2517	144.8	153.912	143.26314	0.006497219
2518	144.85	155.493	141.21775	0.006431158
2519	144.9	146.905	139.35371	0.00680712
2520	144.95	154.607	137.62661	0.006468012
2521	145	149.617	136.02665	0.006683732
2522	145.05	154.018	134.58603	0.006492748
2523	145.1	138.637	133.3903	0.007213082
2524	145.15	136.904	132.54812	0.007304388
2525	145.2	139.329	132.17254	0.007177257
2526	145.25	129.568	132.36625	0.007717955
2527	145.3	138.744	133.2136	0.007207519
2528	145.35	135.28	134.77545	0.007392076
2529	145.4	138.131	137.08286	0.007239505
2530	145.45	135.511	140.12626	0.007379475
2531	145.5	141.032	143.83788	0.007090589
2532	145.55	145.213	148.06942	0.006886436
2533	145.6	153.814	152.5715	0.006501359
2534	145.65	150.794	156.98864	0.006631564
2535	145.7	159.035	160.88806	0.006287924
2536	145.75	159.632	163.82785	0.006264408
2537	145.8	160.359	165.44618	0.006236008
2538	145.85	158.936	165.53749	0.006291841
2539	145.9	153.333	164.08872	0.006521753
2540	145.95	156.457	161.26595	0.006391532
2541	146	155.917	157.35983	0.006413669
2542	146.05	149.279	152.71387	0.006698866
2543	146.1	152.958	147.66267	0.006537742
2544	146.15	140.242	142.49428	0.007130532
2545	146.2	133.963	137.43563	0.007464748
2546	146.25	133.522	132.65242	0.007489402
2547	146.3	128.685	128.25543	0.007770913
2548	146.35	132.141	124.30905	0.007567674
2549	146.4	122.363	120.84009	0.008172405
2550	146.45	117.864	117.84646	0.008484355
2551	146.5	125.101	115.30553	0.007993541
2552	146.55	113.686	113.18171	0.008796158
2553	146.6	110.511	111.433	0.009048873
2554	146.65	111.711	110.01606	0.00895167
2555	146.7	109.47	108.88976	0.009134923
2556	146.75	109.147	108.01736	0.009161956
2557	146.8	115.112	107.36749	0.008687192
2558	146.85	115.391	106.91434	0.008666187
2559	146.9	99.684	106.63714	0.0100317
2560	146.95	105.221	106.51871	0.009503806
2561	147	106.859	106.54096	0.009358126
2562	147.05	112.963	106.698	0.008852456
2563	147.1	110.662	106.97213	0.009036526
2564	147.15	110.419	107.34394	0.009056412
2565	147.2	111.575	107.78833	0.008962581
2566	147.25	112.04	108.26844	0.008925384
2567	147.3	113.933	108.75695	0.008777088
2568	147.35	124.108	109.21411	0.008057498
2569	147.4	114.164	109.60556	0.008759329
2570	147.45	111.974	109.90333	0.008930645
2571	147.5	113.227	110.08639	0.008831816
2572	147.55	111.51	110.14015	0.008967806
2573	147.6	116.685	110.0562	0.008570082
2574	147.65	119.89	109.83272	0.008340979
2575	147.7	113.891	109.47544	0.008780325
2576	147.75	105.367	108.99864	0.009490637
2577	147.8	103.934	108.42472	0.009621491
2578	147.85	114.711	107.78189	0.00871756
2579	147.9	106.73	107.10041	0.009369437
2580	147.95	114.729	106.40879	0.008716192
2581	148	109.987	105.73124	0.009091984
2582	148.05	103.448	105.08644	0.009666692
2583	148.1	103.461	104.48761	0.009665478
2584	148.15	103.271	103.94305	0.009683261
2585	148.2	104.001	103.45699	0.009615292
2586	148.25	98.733	103.03044	0.010128326
2587	148.3	103.262	102.66197	0.009684105
2588	148.35	105.437	102.34838	0.009484337
2589	148.4	99.38	102.0853	0.010062387
2590	148.45	105.973	101.86769	0.009436366
2591	148.5	104.156	101.69029	0.009600983
2592	148.55	95.44	101.54651	0.010477787
2593	148.6	101.92	101.41669	0.009811617
2594	148.65	110.648	101.32305	0.009037669
2595	148.7	104.948	101.25506	0.009528528
2596	148.75	92.147	101.20729	0.010852225
2597	148.8	100.567	101.17623	0.00994362
2598	148.85	102.386	101.15128	0.00976696
2599	148.9	98.016	101.14323	0.010202416
2600	148.95	104.652	101.13295	0.009555479
2601	149	107.167	101.13842	0.009331231
2602	149.05	107.523	101.15508	0.009300336
2603	149.1	100.527	101.17984	0.009947576
2604	149.15	104.541	101.21124	0.009565625
2605	149.2	99.413	101.2483	0.010059047
2606	149.25	104.059	101.29027	0.009609933
2607	149.3	109.168	101.33642	0.009160193
2608	149.35	109.732	101.38635	0.009113112
2609	149.4	105.417	101.43976	0.009486136
2610	149.45	108.482	101.49637	0.009218119
2611	149.5	106.397	101.55596	0.009398761
2612	149.55	109.384	101.61831	0.009142105
2613	149.6	110.959	101.68325	0.009012338
2614	149.65	111.724	101.75062	0.008950628
2615	149.7	113.936	101.82026	0.008776857
2616	149.75	107.645	101.89206	0.009289795
2617	149.8	114.568	101.96588	0.008728441
2618	149.85	121.821	102.04163	0.008208765
2619	149.9	116.37	102.11921	0.00859328
2620	149.95	126.672	102.19852	0.007894404
2621	150	127.008	102.27949	0.00787352



_refine_ls_goodness_of_fit_all
1.42
_journal_year
2009
_journal_page_last
299
_symmetry_space_group_name_H-M
'P 1 m 1'
_pd_char_colour
white
_cell_angle_beta
90.073(3)
_pd_spec_mount_mode
reflection
_cell_angle_alpha
90
_diffrn_radiation_monochromator
'Ge [115]'
_chemical_formula_sum
'K0.30 Na0.70 Nb1 O3'
_chemical_formula_structural
'K Na (Nb O3)'
_journal_page_first
291
_chemical_formula_weight
168.73
_pd_meas_2theta_range_max
160
_diffrn_measurement_device_type
D2B
_symmetry_cell_setting
monoclinic
_diffrn_ambient_temperature
200
_journal_coeditor_code
WF5039
_pd_meas_2theta_range_inc
0.05
_journal_name_full
'Acta Crystallographica, Section B'
_journal_volume
65
_cell_volume
125.360(4)
_journal_issue
3
_pd_spec_mounting
'Vanadium can packed with powder'
_pd_spec_shape
flat
_pd_proc_ls_prof_R_factor
0.0583
_diffrn_radiation_wavelength
1.60
_pd_block_diffractogram_id
KNN30at200K
_diffrn_radiation_type
Neutron
_journal_paper_category
FA
_journal_date_accepted
2009-03-25
_pd_proc_ls_prof_wR_factor
0.0757
_cell_angle_gamma
90
_refine_ls_number_parameters
39
_computing_structure_refinement
'TOPAS Academic'
_cell_formula_units_Z
2
_cell_length_a
5.65868(12)
_cell_length_b
3.93856(5)
_cell_length_c
5.62480(13)
_chemical_name_systematic
'Sodium Potassium Niobate'
_journal_date_recd_electronic
2008-12-13
_pd_meas_2theta_range_min
0.10
loop_
_symmetry_equiv_pos_as_xyz

;x, -y, z
;

;x, y, z
;

loop_
_atom_type_symbol
Na1+
K1+
Nb5+
O2-

loop_
_atom_site_type_symbol
_atom_site_label
_atom_site_fract_x
_atom_site_fract_y
_atom_site_fract_z
_atom_site_occupancy
Na+1 Na1 0.5389(18) 0.5 0.018(2) 0.7
K+1 K1 0.5389(18) 0.5 0.018(2) 0.3
Na+1 Na2 0.0389(18) 0.5 0.518(2) 0.7
K+1 K2 0.0389(18) 0.5 0.518(2) 0.3
Nb+5 Nb1 0.0362(5) 0 -0.003(2) 1
Nb+5 Nb2 0.5362(5) 0 0.497(2) 1
O-2 O1 0 0.5 0 1
O-2 O2 0.5 0.5 0.5 1
O-2 O3 0.2737(9) 0 0.2286(10) 1
O-2 O4 0.2286(10) 0 0.7263(9) 1
O-2 O5 0.7714(10) 0 0.2737(9) 1
O-2 O6 0.7263(9) 0 0.7714(10) 1

loop_
_atom_site_aniso_label
_atom_site_aniso_u_11
_atom_site_aniso_u_22
_atom_site_aniso_u_33
_atom_site_aniso_u_12
_atom_site_aniso_u_13
_atom_site_aniso_u_23
_atom_site_aniso_type_symbol
Na1 0.009(3) 0.0031(11) 0.006(3) 0 -0.038(3) 0 Na+1
K1 0.009(3) 0.0031(11) 0.006(3) 0 -0.038(3) 0 K+1
Na2 0.009(3) 0.0031(11) 0.006(3) 0 -0.038(3) 0 Na+1
K2 0.009(3) 0.0031(11) 0.006(3) 0 -0.038(3) 0 K+1
Nb1 0.0000(17) 0.0000(6) 0.0000(12) 0 -0.004(2) 0 Nb+5
Nb2 0.0000(17) 0.0000(6) 0.0000(12) 0 -0.004(2) 0 Nb+5
O1 0.0109(16) 0.0000(9) 0.0146(17) 0 0.007(3) 0 O-2
O2 0.0109(16) 0.0000(9) 0.0146(17) 0 0.007(3) 0 O-2
O3 0.0012(7) 0.0108(6) 0.0002(7) 0 0.003(2) 0 O-2
O4 0.0012(7) 0.0108(6) 0.0002(7) 0 0.003(2) 0 O-2
O5 0.0012(7) 0.0108(6) 0.0002(7) 0 0.003(2) 0 O-2
O6 0.0012(7) 0.0108(6) 0.0002(7) 0 0.003(2) 0 O-2



# powder data simulated using PLATON:

data_KNN30at200K_simulated_1.60

_publcif_pd_cifplot 'simulated 2021-03-25'

