data_KNN30at120K
_pd_block_id     KNN30at120K
_pd_proc_2theta_range_min  15 
_pd_proc_2theta_range_max 145
_pd_proc_ls_background_function   'Chebychev with six coefficients' 

loop_
      
_pd_data_point_id                           
      
_pd_meas_2theta_corrected     
_pd_meas_intensity_total                     
      
_pd_calc_intensity_total                     
      
_pd_proc_ls_weight
1	15	55.074	61.06785	0.018157388
2	15.05	60.402	61.06938	0.016555743
3	15.1	62.632	61.07165	0.015966279
4	15.15	60.756	61.07246	0.01645928
5	15.2	58.321	61.07319	0.017146482
6	15.25	58.508	61.07385	0.01709168
7	15.3	59.792	61.07442	0.016724645
8	15.35	63.159	61.07492	0.015833056
9	15.4	62.535	61.07533	0.015991045
10	15.45	61.812	61.07567	0.016178088
11	15.5	57.994	61.07594	0.017243163
12	15.55	60.958	61.07613	0.016404738
13	15.6	60.858	61.07624	0.016431693
14	15.65	60.143	61.07629	0.016627039
15	15.7	59.678	61.07626	0.016756594
16	15.75	60.92	61.07616	0.01641497
17	15.8	57.974	61.07598	0.017249112
18	15.85	61.15	61.07574	0.01635323
19	15.9	61.648	61.07544	0.016221126
20	15.95	61.277	61.07506	0.016319337
21	16	62.625	61.07462	0.015968064
22	16.05	62.244	61.07412	0.016065806
23	16.1	63.7	61.07355	0.015698587
24	16.15	62.904	61.07292	0.01589724
25	16.2	68.219	61.07222	0.014658673
26	16.25	64.892	61.07147	0.01541022
27	16.3	62.618	61.07066	0.015969849
28	16.35	63.273	61.06979	0.01580453
29	16.4	62.867	61.06887	0.015906596
30	16.45	60.15	61.06789	0.016625104
31	16.5	58.628	61.06686	0.017056696
32	16.55	59.098	61.06578	0.016921046
33	16.6	59.059	61.06464	0.01693222
34	16.65	61.384	61.06346	0.01629089
35	16.7	59.486	61.06223	0.016810678
36	16.75	53.334	61.06096	0.018749766
37	16.8	59.197	61.05964	0.016892748
38	16.85	61.837	61.05828	0.016171548
39	16.9	62.724	61.05687	0.015942861
40	16.95	61.72	61.05543	0.016202203
41	17	60.234	61.05396	0.016601919
42	17.05	59.05	61.05244	0.016934801
43	17.1	60.201	61.0509	0.01661102
44	17.15	59.561	61.04932	0.01678951
45	17.2	57.915	61.04772	0.017266684
46	17.25	62.369	61.04609	0.016033606
47	17.3	63.959	61.04443	0.015635016
48	17.35	60.212	61.04275	0.016607985
49	17.4	61.623	61.04106	0.016227707
50	17.45	57.604	61.03934	0.017359906
51	17.5	63.164	61.03761	0.015831803
52	17.55	59.327	61.03587	0.016855732
53	17.6	61.058	61.03412	0.01637787
54	17.65	58.277	61.03237	0.017159428
55	17.7	60.456	61.03061	0.016540955
56	17.75	62.857	61.02885	0.015909127
57	17.8	59.783	61.02709	0.016727163
58	17.85	58.448	61.02535	0.017109225
59	17.9	55.615	61.02361	0.017980761
60	17.95	57.967	61.02188	0.017251195
61	18	60.486	61.02018	0.016532751
62	18.05	60.077	61.0185	0.016645305
63	18.1	57.58	61.01684	0.017367141
64	18.15	59.189	61.01521	0.016895031
65	18.2	60.277	61.01362	0.016590076
66	18.25	62.57	61.01207	0.0159821
67	18.3	57.577	61.01057	0.017368046
68	18.35	61.784	61.00911	0.01618542
69	18.4	63.097	61.00772	0.015848614
70	18.45	62.615	61.00638	0.015970614
71	18.5	58.007	61.00511	0.017239299
72	18.55	63.228	61.00392	0.015815778
73	18.6	61.189	61.00281	0.016342807
74	18.65	57.474	61.00179	0.017399172
75	18.7	58.913	61.00086	0.016974182
76	18.75	64.148	61.00004	0.015588951
77	18.8	58.567	60.99933	0.017074462
78	18.85	60.036	60.99874	0.016656673
79	18.9	59.61	60.99829	0.016775709
80	18.95	59.801	60.99797	0.016722128
81	19	60.339	60.99781	0.016573029
82	19.05	63.106	60.99781	0.015846354
83	19.1	58.887	60.99798	0.016981677
84	19.15	61.628	60.99834	0.016226391
85	19.2	66.778	60.9989	0.014974992
86	19.25	63.147	60.99967	0.015836065
87	19.3	60.128	61.00067	0.016631187
88	19.35	59.912	61.00192	0.016691147
89	19.4	64.376	61.00343	0.015533739
90	19.45	61.755	61.00522	0.016193021
91	19.5	61.965	61.00731	0.016138142
92	19.55	64.609	61.00972	0.01547772
93	19.6	64.775	61.01247	0.015438055
94	19.65	63.535	61.01559	0.015739356
95	19.7	62.759	61.01909	0.01593397
96	19.75	58.537	61.02302	0.017083212
97	19.8	56.518	61.0274	0.017693478
98	19.85	61.478	61.03225	0.016265981
99	19.9	61.045	61.03762	0.016381358
100	19.95	63.162	61.04353	0.015832304
101	20	63.938	61.05004	0.015640151
102	20.05	60.477	61.05718	0.016535212
103	20.1	60.811	61.06499	0.016444393
104	20.15	60.786	61.07353	0.016451157
105	20.2	60.442	61.08286	0.016544787
106	20.25	62.658	61.09302	0.015959654
107	20.3	59.164	61.10409	0.01690217
108	20.35	57.927	61.11613	0.017263107
109	20.4	63.111	61.12922	0.015845098
110	20.45	62.769	61.14345	0.015931431
111	20.5	60.143	61.1589	0.016627039
112	20.55	54.763	61.17567	0.018260504
113	20.6	59.211	61.19388	0.016888754
114	20.65	61.755	61.21365	0.016193021
115	20.7	58.312	61.2351	0.017149129
116	20.75	58.953	61.25838	0.016962665
117	20.8	58.269	61.28367	0.017161784
118	20.85	58.552	61.31113	0.017078836
119	20.9	59.378	61.34101	0.016841254
120	20.95	60.648	61.37356	0.01648859
121	21	58.194	61.40907	0.017183902
122	21.05	59.327	61.44786	0.016855732
123	21.1	59.455	61.49034	0.016819443
124	21.15	63.944	61.53712	0.015638684
125	21.2	64.601	61.59008	0.015479637
126	21.25	58.897	61.6447	0.016978793
127	21.3	60.042	61.70451	0.016655008
128	21.35	60.031	61.7701	0.01665806
129	21.4	62.276	61.84215	0.01605755
130	21.45	62.468	61.92145	0.016008196
131	21.5	57.869	62.00889	0.017280409
132	21.55	64.402	62.10551	0.015527468
133	21.6	65.023	62.21256	0.015379174
134	21.65	61.183	62.33144	0.016344409
135	21.7	62.13	62.46385	0.016095284
136	21.75	63.124	62.6118	0.015841835
137	21.8	62.283	62.77771	0.016055746
138	21.85	66.717	62.96458	0.014988684
139	21.9	66.862	63.17633	0.014956178
140	21.95	73.014	63.41844	0.013696004
141	22	78.825	63.69942	0.01268633
142	22.05	74.42	64.03363	0.013437248
143	22.1	80.91	64.44688	0.012359412
144	22.15	84.343	64.98604	0.011856348
145	22.2	81.437	65.7347	0.012279431
146	22.25	86.16	66.83576	0.011606314
147	22.3	91.428	68.52062	0.010937568
148	22.35	92.779	71.14218	0.010778301
149	22.4	101.826	75.20648	0.009820674
150	22.45	109.183	81.39761	0.009158935
151	22.5	113.998	90.59264	0.008772084
152	22.55	122.427	103.86867	0.008168133
153	22.6	133.876	122.50763	0.007469599
154	22.65	150.341	148.00289	0.006651545
155	22.7	170.83	182.05701	0.005853773
156	22.75	194.012	226.5252	0.00515432
157	22.8	233.19	283.1973	0.004288349
158	22.85	281.257	353.31558	0.003555467
159	22.9	331.202	436.7553	0.003019305
160	22.95	409.662	530.98343	0.002441037
161	23	509.593	630.15022	0.00196235
162	23.05	614.567	724.8117	0.001627162
163	23.1	723.655	802.74494	0.001381874
164	23.15	830.522	851.02098	0.001204062
165	23.2	886.779	859.12039	0.001127677
166	23.25	893.531	822.51204	0.001119155
167	23.3	827.75	745.34769	0.001208094
168	23.35	708.42	639.85119	0.001411592
169	23.4	570.128	522.14795	0.001753992
170	23.45	460.361	407.42947	0.002172208
171	23.5	369.298	306.84363	0.00270784
172	23.55	294.055	226.33594	0.003400724
173	23.6	232.152	167.01523	0.004307523
174	23.65	197.493	126.52329	0.005063471
175	23.7	154.247	100.75462	0.006483108
176	23.75	124.979	85.3346	0.008001344
177	23.8	114.359	76.54013	0.008744393
178	23.85	99.469	71.65118	0.010053383
179	23.9	83.472	68.90715	0.011980065
180	23.95	75.942	67.27955	0.013167944
181	24	66.586	66.21838	0.015018172
182	24.05	69.56	65.45015	0.014376078
183	24.1	65.065	64.84539	0.015369246
184	24.15	62.049	64.34346	0.016116295
185	24.2	67.37	63.91448	0.014843402
186	24.25	66.679	63.5419	0.014997226
187	24.3	64.009	63.21512	0.015622803
188	24.35	63.672	62.92646	0.015705491
189	24.4	61.732	62.66998	0.016199054
190	24.45	60.357	62.44089	0.016568087
191	24.5	60.644	62.23527	0.016489677
192	24.55	61.587	62.04988	0.016237193
193	24.6	61.449	61.882	0.016273658
194	24.65	57.733	61.72938	0.017321116
195	24.7	59.038	61.59009	0.016938243
196	24.75	61.798	61.46251	0.016181753
197	24.8	59.643	61.34525	0.016766427
198	24.85	56.827	61.23713	0.017597269
199	24.9	58.811	61.13711	0.017003622
200	24.95	61.537	61.04433	0.016250386
201	25	61.059	60.958	0.016377602
202	25.05	58.729	60.87747	0.017027363
203	25.1	58.65	60.80214	0.017050298
204	25.15	59.269	60.7315	0.016872227
205	25.2	61.564	60.66511	0.016243259
206	25.25	55.418	60.60256	0.018044679
207	25.3	62.318	60.54351	0.016046728
208	25.35	61.559	60.48763	0.016244578
209	25.4	60.642	60.43465	0.016490221
210	25.45	56.884	60.38432	0.017579636
211	25.5	59.342	60.33641	0.016851471
212	25.55	57.705	60.29073	0.017329521
213	25.6	58.482	60.2471	0.017099278
214	25.65	55.128	60.20535	0.018139602
215	25.7	56.854	60.16534	0.017588912
216	25.75	57.162	60.12693	0.017494139
217	25.8	60.893	60.09001	0.016422249
218	25.85	62.936	60.05447	0.015889157
219	25.9	58.409	60.02021	0.017120649
220	25.95	58.168	59.98713	0.017191583
221	26	60.842	59.95516	0.016436015
222	26.05	63.247	59.92421	0.015811027
223	26.1	61.226	59.89423	0.01633293
224	26.15	57.92	59.86515	0.017265193
225	26.2	59.162	59.83691	0.016902742
226	26.25	60.566	59.80945	0.016510914
227	26.3	58.893	59.78274	0.016979947
228	26.35	56.439	59.75671	0.017718244
229	26.4	56	59.73134	0.017857143
230	26.45	59.386	59.70658	0.016838986
231	26.5	57.195	59.6824	0.017484046
232	26.55	58.379	59.65877	0.017129447
233	26.6	58.337	59.63565	0.01714178
234	26.65	56.335	59.61301	0.017750954
235	26.7	57.271	59.59084	0.017460844
236	26.75	59.401	59.5691	0.016834733
237	26.8	56.683	59.54778	0.017641974
238	26.85	58.476	59.52685	0.017101033
239	26.9	58.862	59.5063	0.016988889
240	26.95	58.484	59.4861	0.017098694
241	27	62.707	59.46624	0.015947183
242	27.05	54.912	59.44671	0.018210956
243	27.1	56.554	59.42748	0.017682215
244	27.15	60.393	59.40855	0.01655821
245	27.2	58.375	59.38991	0.017130621
246	27.25	58.051	59.37153	0.017226232
247	27.3	54.671	59.35342	0.018291233
248	27.35	57.975	59.33556	0.017248814
249	27.4	55.825	59.31794	0.017913121
250	27.45	61.634	59.30056	0.016224811
251	27.5	58.165	59.2834	0.01719247
252	27.55	55.656	59.26646	0.017967515
253	27.6	58.296	59.24973	0.017153836
254	27.65	58.987	59.2332	0.016952888
255	27.7	57.424	59.21688	0.017414322
256	27.75	55.09	59.20075	0.018152115
257	27.8	58.425	59.18481	0.017115961
258	27.85	62.601	59.16905	0.015974186
259	27.9	60.036	59.15347	0.016656673
260	27.95	59.559	59.13807	0.016790074
261	28	59.226	59.12285	0.016884476
262	28.05	57.362	59.1078	0.017433144
263	28.1	57.869	59.09291	0.017280409
264	28.15	56.803	59.0782	0.017604704
265	28.2	57.44	59.06365	0.017409471
266	28.25	57.67	59.04926	0.017340038
267	28.3	56.718	59.03504	0.017631087
268	28.35	60.731	59.02098	0.016466055
269	28.4	57.633	59.00708	0.01735117
270	28.45	57.059	58.99335	0.017525719
271	28.5	56.817	58.97978	0.017600366
272	28.55	56.303	58.96637	0.017761043
273	28.6	57.591	58.95313	0.017363824
274	28.65	59.26	58.94005	0.016874789
275	28.7	56.378	58.92714	0.017737415
276	28.75	53.374	58.91441	0.018735714
277	28.8	58.417	58.90184	0.017118305
278	28.85	56.84	58.88945	0.017593244
279	28.9	58.509	58.87725	0.017091388
280	28.95	61.036	58.86522	0.016383774
281	29	57.022	58.85339	0.017537091
282	29.05	60.007	58.84175	0.016664722
283	29.1	62.712	58.8303	0.015945911
284	29.15	56.867	58.81906	0.017584891
285	29.2	56.171	58.80803	0.017802781
286	29.25	58.202	58.79722	0.01718154
287	29.3	60.269	58.78663	0.016592278
288	29.35	55.724	58.77628	0.017945589
289	29.4	55.089	58.76617	0.018152444
290	29.45	56.269	58.75631	0.017771775
291	29.5	55.217	58.74672	0.018110365
292	29.55	58.836	58.7374	0.016996397
293	29.6	56.612	58.72837	0.017664099
294	29.65	56.876	58.71964	0.017582108
295	29.7	54.464	58.71123	0.018360752
296	29.75	58.763	58.70314	0.017017511
297	29.8	60.804	58.69595	0.016446286
298	29.85	59.763	58.69099	0.016732761
299	29.9	56.999	58.68933	0.017544167
300	29.95	57.25	58.69346	0.017467249
301	30	60.651	58.71768	0.016487774
302	30.05	59.011	58.73426	0.016945993
303	30.1	59.59	58.7295	0.016781339
304	30.15	59.115	58.72526	0.01691618
305	30.2	54.896	58.72158	0.018216263
306	30.25	59.877	58.7185	0.016700904
307	30.3	56.152	58.71606	0.017808805
308	30.35	58.521	58.7143	0.017087883
309	30.4	60.517	58.71328	0.016524282
310	30.45	57.088	58.71304	0.017516816
311	30.5	57.563	58.71364	0.01737227
312	30.55	56.324	58.71516	0.017754421
313	30.6	56.483	58.71767	0.017704442
314	30.65	56.881	58.72123	0.017580563
315	30.7	57.876	58.72596	0.017278319
316	30.75	55.299	58.73193	0.01808351
317	30.8	59.07	58.73928	0.016929067
318	30.85	55.956	58.74811	0.017871185
319	30.9	53.204	58.75856	0.018795579
320	30.95	54.585	58.7708	0.018320051
321	31	51.606	58.78499	0.019377592
322	31.05	54.841	58.80134	0.018234533
323	31.1	59.486	58.82006	0.016810678
324	31.15	57.537	58.84141	0.017380121
325	31.2	55.697	58.86568	0.017954288
326	31.25	53.992	58.8932	0.018521262
327	31.3	57.281	58.92434	0.017457796
328	31.35	59.471	58.95954	0.016814918
329	31.4	57.645	58.99932	0.017347558
330	31.45	56.147	59.04424	0.017810391
331	31.5	55.2	59.09501	0.018115942
332	31.55	56.326	59.15242	0.01775379
333	31.6	58.529	59.21741	0.017085547
334	31.65	58.437	59.29112	0.017112446
335	31.7	54.91	59.37488	0.018211619
336	31.75	60.362	59.47032	0.016566714
337	31.8	62.199	59.5794	0.016077429
338	31.85	60.956	59.70458	0.016405276
339	31.9	57.944	59.84908	0.017258042
340	31.95	60.21	60.01733	0.016608537
341	32	59.159	60.21603	0.016903599
342	32.05	62.349	60.45637	0.01603875
343	32.1	55.807	60.75817	0.017918899
344	32.15	60.564	61.15768	0.016511459
345	32.2	64.771	61.72059	0.015439008
346	32.25	61.769	62.56227	0.016189351
347	32.3	60.683	63.8764	0.01647908
348	32.35	65.922	65.97129	0.015169443
349	32.4	72.438	69.31005	0.013804909
350	32.45	78.017	74.54424	0.012817719
351	32.5	76.433	82.52162	0.013083354
352	32.55	83.736	94.23736	0.011942295
353	32.6	94.645	110.69283	0.010565799
354	32.65	109.043	132.64198	0.009170694
355	32.7	133.307	160.24864	0.007501482
356	32.75	169.323	192.73492	0.005905872
357	32.8	205.209	228.14491	0.004873081
358	32.85	232.496	263.35471	0.004301149
359	32.9	286.872	294.41355	0.003485875
360	32.95	312.194	317.25208	0.003203137
361	33	321.862	328.75985	0.003106922
362	33.05	333.032	327.88641	0.003002714
363	33.1	318.112	315.79122	0.003143547
364	33.15	290.412	294.75766	0.003443384
365	33.2	273.888	267.1472	0.003651127
366	33.25	244.744	235.28682	0.004085902
367	33.3	204.572	201.80132	0.004888255
368	33.35	163.093	169.47727	0.006131471
369	33.4	133.802	140.62737	0.00747373
370	33.45	115.137	116.65755	0.008685305
371	33.5	100.928	98.04235	0.009908053
372	33.55	80.187	84.50174	0.012470849
373	33.6	77.288	75.25449	0.012938619
374	33.65	68.89	69.29479	0.014515895
375	33.7	63.916	65.63205	0.015645535
376	33.75	64.854	63.44468	0.015419249
377	33.8	64.67	62.13699	0.01546312
378	33.85	58.996	61.32363	0.016950302
379	33.9	55.179	60.77869	0.018122837
380	33.95	54.962	60.38026	0.018194389
381	34	60.481	60.06636	0.016534118
382	34.05	57.925	59.80626	0.017263703
383	34.1	57.689	59.58425	0.017334327
384	34.15	57.041	59.39153	0.017531249
385	34.2	57.849	59.22248	0.017286384
386	34.25	55.802	59.07308	0.017920505
387	34.3	56.12	58.94025	0.017818959
388	34.35	56.429	58.82153	0.017721384
389	34.4	60.692	58.7149	0.016476636
390	34.45	58.774	58.61871	0.017014326
391	34.5	54.071	58.53157	0.018494202
392	34.55	57.021	58.45234	0.017537399
393	34.6	59.238	58.38005	0.016881056
394	34.65	60.387	58.31387	0.016559856
395	34.7	57.614	58.25311	0.017356892
396	34.75	61.324	58.1972	0.016306829
397	34.8	58.358	58.14576	0.017135611
398	34.85	53.056	58.09846	0.01884801
399	34.9	54.615	58.05533	0.018309988
400	34.95	61.687	58.01654	0.016210871
401	35	56.691	57.97831	0.017639484
402	35.05	55.305	57.94269	0.018081548
403	35.1	55.371	57.90948	0.018059995
404	35.15	56.327	57.87846	0.017753475
405	35.2	55.866	57.84948	0.017899975
406	35.25	53.792	57.8224	0.018590125
407	35.3	53.647	57.79707	0.018640371
408	35.35	54.417	57.77338	0.01837661
409	35.4	54.313	57.75124	0.018411798
410	35.45	54.958	57.73056	0.018195713
411	35.5	56.452	57.71125	0.017714164
412	35.55	56.184	57.69326	0.017798662
413	35.6	56.116	57.67652	0.01782023
414	35.65	60.459	57.66099	0.016540135
415	35.7	54.792	57.64661	0.01825084
416	35.75	58.279	57.63336	0.017158839
417	35.8	58.693	57.62121	0.017037807
418	35.85	57.327	57.61012	0.017443787
419	35.9	55.544	57.60019	0.018003745
420	35.95	57.966	57.59194	0.017251492
421	36	55.822	57.58591	0.017914084
422	36.05	58.009	57.58407	0.017238704
423	36.1	62.441	57.58723	0.016015118
424	36.15	60.144	57.58245	0.016626762
425	36.2	57.768	57.57872	0.017310622
426	36.25	60.452	57.57633	0.01654205
427	36.3	57.484	57.57573	0.017396145
428	36.35	54.261	57.57768	0.018429443
429	36.4	57.449	57.58723	0.017406743
430	36.45	57.665	57.59101	0.017341542
431	36.5	57.983	57.59414	0.017246434
432	36.55	58.959	57.59853	0.016960939
433	36.6	59.384	57.60424	0.016839553
434	36.65	54.786	57.61133	0.018252838
435	36.7	58.802	57.61987	0.017006224
436	36.75	59.131	57.62995	0.016911603
437	36.8	58.242	57.64164	0.01716974
438	36.85	63.681	57.65506	0.015703271
439	36.9	63.841	57.67031	0.015663915
440	36.95	57.067	57.68752	0.017523262
441	37	65.186	57.70684	0.015340717
442	37.05	61.759	57.72841	0.016191972
443	37.1	61.707	57.75242	0.016205617
444	37.15	59.798	57.77908	0.016722967
445	37.2	57.175	57.80861	0.017490162
446	37.25	59.161	57.84127	0.016903027
447	37.3	59.666	57.87736	0.016759964
448	37.35	59.189	57.91722	0.016895031
449	37.4	59.562	57.96123	0.016789228
450	37.45	59.233	58.00984	0.016882481
451	37.5	53.403	58.06355	0.01872554
452	37.55	55.092	58.12297	0.018151456
453	37.6	59.577	58.18879	0.016785001
454	37.65	57.297	58.26182	0.017452921
455	37.7	60.793	58.34301	0.016449262
456	37.75	59.298	58.4335	0.016863975
457	37.8	57.858	58.53465	0.017283695
458	37.85	60.576	58.64806	0.016508188
459	37.9	62.667	58.77571	0.015957362
460	37.95	59.47	58.92001	0.016815201
461	38	58.184	59.08397	0.017186855
462	38.05	61.96	59.27152	0.016139445
463	38.1	61.714	59.48803	0.016203779
464	38.15	63.976	59.74163	0.015630862
465	38.2	60.686	60.04594	0.016478265
466	38.25	60.463	60.42573	0.01653904
467	38.3	59.975	60.92807	0.016673614
468	38.35	62.409	61.64211	0.01602333
469	38.4	69.355	62.73125	0.014418571
470	38.45	68.926	64.4792	0.014508313
471	38.5	67.66	67.34586	0.014779781
472	38.55	71.429	72.01729	0.013999916
473	38.6	80.124	79.4175	0.012480655
474	38.65	82.885	90.63272	0.012064909
475	38.7	98.473	106.69436	0.010155068
476	38.75	112.268	128.19593	0.008907258
477	38.8	136.227	154.7983	0.007340689
478	38.85	169.31	184.78823	0.005906326
479	38.9	199.848	214.91506	0.005003803
480	38.95	232.42	240.67912	0.004302556
481	39	259.114	257.14312	0.003859305
482	39.05	271.555	260.30222	0.003682495
483	39.1	261.879	248.85977	0.003818557
484	39.15	237.904	225.30063	0.004203376
485	39.2	200.912	194.82496	0.004977303
486	39.25	172.053	163.00042	0.005812163
487	39.3	132.873	134.12186	0.007525983
488	39.35	117.29	110.65971	0.008525876
489	39.4	96.513	93.35613	0.010361298
490	39.45	84.551	81.68425	0.011827181
491	39.5	82.096	74.45146	0.012180861
492	39.55	76.663	70.33191	0.013044102
493	39.6	75.933	68.20009	0.013169505
494	39.65	72.414	67.25638	0.013809484
495	39.7	71.529	67.01203	0.013980344
496	39.75	73.179	67.21688	0.013665123
497	39.8	75.302	67.7901	0.01327986
498	39.85	71.564	68.78479	0.013973506
499	39.9	76.591	70.39497	0.013056364
500	39.95	78.397	73.00263	0.01275559
501	40	82.776	77.25244	0.012080796
502	40.05	91.702	84.12743	0.010904888
503	40.1	98.899	94.97667	0.010111326
504	40.15	109.964	111.42477	0.009093885
505	40.2	125.487	135.09136	0.007968953
506	40.25	146.671	167.09757	0.00681798
507	40.3	181.725	207.45591	0.00550282
508	40.35	244.581	254.59792	0.004088625
509	40.4	303.834	305.35965	0.003291271
510	40.45	362.648	355.61121	0.002757495
511	40.5	426.477	401.50458	0.002344792
512	40.55	457.691	441.23304	0.00218488
513	40.6	485.165	476.81842	0.002061154
514	40.65	502.915	513.99174	0.001988408
515	40.7	513.51	558.5175	0.001947382
516	40.75	576.313	611.42104	0.001735168
517	40.8	662.612	666.63722	0.001509179
518	40.85	754.621	711.77605	0.001325169
519	40.9	819.841	731.52807	0.001219749
520	40.95	811.886	713.47922	0.0012317
521	41	727.816	654.90543	0.001373974
522	41.05	596.161	565.35105	0.001677399
523	41.1	430.488	461.44239	0.002322945
524	41.15	313.566	359.33688	0.003189121
525	41.2	228.188	270.4919	0.004382351
526	41.25	173.697	200.60855	0.005757152
527	41.3	130.314	150.33097	0.007673773
528	41.35	108.557	116.91593	0.009211751
529	41.4	89.354	96.1473	0.011191441
530	41.45	78.899	83.85005	0.012674432
531	41.5	67.429	76.71114	0.014830414
532	41.55	69.761	72.48099	0.014334657
533	41.6	60.272	69.80958	0.016591452
534	41.65	62.715	67.95776	0.015945149
535	41.7	60.812	66.55989	0.016444123
536	41.75	63.189	65.43694	0.015825539
537	41.8	59.786	64.50058	0.016726324
538	41.85	56.861	63.70322	0.017586747
539	41.9	58.511	63.01551	0.017090803
540	41.95	62.268	62.41503	0.016059613
541	42	55.087	61.89688	0.018153103
542	42.05	60.283	61.44468	0.016588425
543	42.1	57.019	61.04094	0.017538014
544	42.15	63.317	60.6837	0.015793547
545	42.2	53.833	60.36728	0.018575966
546	42.25	53.815	60.08155	0.01858218
547	42.3	62.419	59.82519	0.016020763
548	42.35	58.261	59.59451	0.017164141
549	42.4	56.5	59.38636	0.017699115
550	42.45	58.335	59.19812	0.017142367
551	42.5	61.248	59.02752	0.016327064
552	42.55	58.972	58.87264	0.0169572
553	42.6	57.402	58.73181	0.017420996
554	42.65	58.708	58.60361	0.017033454
555	42.7	60.208	58.48681	0.016609088
556	42.75	58.779	58.38032	0.017012879
557	42.8	59.581	58.28322	0.016783874
558	42.85	61.145	58.19468	0.016354567
559	42.9	56.761	58.114	0.01761773
560	42.95	59.318	58.04054	0.016858289
561	43	59.878	57.97376	0.016700625
562	43.05	57.332	57.91316	0.017442266
563	43.1	57.182	57.85833	0.017488021
564	43.15	59.545	57.80889	0.016794021
565	43.2	55.161	57.76451	0.01812875
566	43.25	58.362	57.7249	0.017134437
567	43.3	61.55	57.6898	0.016246954
568	43.35	60.145	57.659	0.016626486
569	43.4	61.67	57.63229	0.01621534
570	43.45	57.925	57.60952	0.017263703
571	43.5	56.214	57.59054	0.017789163
572	43.55	57.054	57.57523	0.017527255
573	43.6	57.545	57.56348	0.017377704
574	43.65	62.669	57.55522	0.015956853
575	43.7	61.155	57.55037	0.016351893
576	43.75	63.186	57.54889	0.015826291
577	43.8	65.297	57.55075	0.015314639
578	43.85	64.509	57.55592	0.015501713
579	43.9	62.792	57.56441	0.015925596
580	43.95	65.999	57.57622	0.015151745
581	44	63.472	57.59139	0.015754979
582	44.05	63.266	57.60995	0.015806278
583	44.1	62.412	57.63195	0.01602256
584	44.15	67.388	57.65747	0.014839437
585	44.2	63.012	57.6866	0.015869993
586	44.25	65.346	57.71942	0.015303156
587	44.3	62.065	57.75605	0.01611214
588	44.35	63.436	57.79664	0.01576392
589	44.4	63.378	57.84132	0.015778346
590	44.45	61.172	57.89028	0.016347348
591	44.5	64.346	57.94369	0.015540982
592	44.55	57.759	58.00178	0.017313319
593	44.6	63.845	58.06478	0.015662934
594	44.65	57.861	58.13296	0.017282798
595	44.7	60.365	58.2066	0.016565891
596	44.75	61.339	58.28602	0.016302842
597	44.8	61.441	58.37159	0.016275777
598	44.85	68.292	58.4637	0.014643004
599	44.9	60.576	58.56278	0.016508188
600	44.95	62.811	58.66931	0.015920778
601	45	58.488	58.78384	0.017097524
602	45.05	62.243	58.90694	0.016066064
603	45.1	63.212	59.03927	0.015819781
604	45.15	63.246	59.18156	0.015811277
605	45.2	61.682	59.33462	0.016212185
606	45.25	62.21	59.49935	0.016074586
607	45.3	58.096	59.67675	0.017212889
608	45.35	58.147	59.86794	0.017197792
609	45.4	57.28	60.07419	0.017458101
610	45.45	61.221	60.2969	0.016334264
611	45.5	59.702	60.53767	0.016749858
612	45.55	63.478	60.79829	0.015753489
613	45.6	59.559	61.08078	0.016790074
614	45.65	62.497	61.38744	0.016000768
615	45.7	62.621	61.72091	0.015969084
616	45.75	61.747	62.08416	0.016195119
617	45.8	59.747	62.48062	0.016737242
618	45.85	64.759	62.91423	0.015441869
619	45.9	61.523	63.38961	0.016254084
620	45.95	62.665	63.91239	0.015957871
621	46	65.81	64.49015	0.015195259
622	46.05	65.402	65.12665	0.015290052
623	46.1	69.504	65.83098	0.014387661
624	46.15	73.829	66.61393	0.013544813
625	46.2	74.667	67.48731	0.013392797
626	46.25	83.04	68.46523	0.012042389
627	46.3	82.197	69.56463	0.012165894
628	46.35	80.453	70.80602	0.012429617
629	46.4	84.368	72.21439	0.011852835
630	46.45	88.145	73.82048	0.011344943
631	46.5	86.491	75.66245	0.011561897
632	46.55	89.131	77.78851	0.011219441
633	46.6	91.47	80.26128	0.010932546
634	46.65	94.223	83.16639	0.01061312
635	46.7	95.924	86.63144	0.01042492
636	46.75	104.332	90.86865	0.009584787
637	46.8	116.216	96.26905	0.008604667
638	46.85	128.303	103.59556	0.00779405
639	46.9	141.642	114.34262	0.007060053
640	46.95	180.875	131.32595	0.00552868
641	47	221.995	159.49869	0.004504606
642	47.05	280.24	206.81066	0.00356837
643	47.1	360.912	284.63023	0.002770759
644	47.15	473.577	406.93656	0.002111589
645	47.2	647.999	587.41702	0.001543212
646	47.25	858.743	834.085	0.001164493
647	47.3	1164.263	1142.20937	0.000858912
648	47.35	1516.608	1487.9523	0.000659366
649	47.4	1830.038	1826.20555	0.000546437
650	47.45	2101.496	2095.52281	0.000475851
651	47.5	2224.318	2232.02689	0.000449576
652	47.55	2145.732	2193.98131	0.000466041
653	47.6	1867.756	1988.13192	0.000535402
654	47.65	1522.679	1669.67177	0.000656737
655	47.7	1157.474	1310.61839	0.00086395
656	47.75	844.011	970.59844	0.001184819
657	47.8	614.453	686.21853	0.001627464
658	47.85	461.059	471.48464	0.00216892
659	47.9	358.855	323.16036	0.002786641
660	47.95	270.069	228.26442	0.003702757
661	48	210.154	171.0767	0.004758415
662	48.05	175.936	137.77058	0.005683885
663	48.1	149.421	118.30766	0.0066925
664	48.15	112.684	106.37162	0.008874374
665	48.2	103.158	98.41655	0.009693868
666	48.25	97.375	92.61828	0.010269576
667	48.3	89.619	88.08588	0.011158348
668	48.35	76.879	84.3836	0.013007453
669	48.4	70.257	81.28273	0.014233457
670	48.45	62.809	78.64726	0.015921285
671	48.5	64.186	76.38542	0.015579721
672	48.55	68.405	74.42952	0.014618814
673	48.6	66.144	72.72724	0.015118529
674	48.65	64.892	71.23708	0.01541022
675	48.7	61.909	69.92572	0.01615274
676	48.75	66.007	68.76607	0.015149908
677	48.8	64.715	67.73599	0.015452368
678	48.85	61.648	66.81723	0.016221126
679	48.9	59.897	65.99462	0.016695327
680	48.95	62.09	65.25551	0.016105653
681	49	61.776	64.58926	0.016187516
682	49.05	56.654	63.98689	0.017651004
683	49.1	61.229	63.44077	0.01633213
684	49.15	61.827	62.94438	0.016174163
685	49.2	61.615	62.49215	0.016229814
686	49.25	61.553	62.07928	0.016246162
687	49.3	59.454	61.70162	0.016819726
688	49.35	58.609	61.35556	0.017062226
689	49.4	55.437	61.03797	0.018038494
690	49.45	54.935	60.74613	0.018203331
691	49.5	58.256	60.47764	0.017165614
692	49.55	57.697	60.2304	0.017331924
693	49.6	56.766	60.00257	0.017616179
694	49.65	57.743	59.79251	0.017318116
695	49.7	55.071	59.5988	0.018158377
696	49.75	58.044	59.42017	0.01722831
697	49.8	60.271	59.25549	0.016591727
698	49.85	60.92	59.10379	0.01641497
699	49.9	60.924	58.96417	0.016413893
700	49.95	55.164	58.83588	0.018127764
701	50	54.72	58.71823	0.018274854
702	50.05	61.816	58.61063	0.016177042
703	50.1	57.705	58.51257	0.017329521
704	50.15	60.225	58.42359	0.0166044
705	50.2	55.693	58.34331	0.017955578
706	50.25	52.986	58.27142	0.01887291
707	50.3	56.086	58.20764	0.017829761
708	50.35	56.29	58.15179	0.017765145
709	50.4	54.952	58.1037	0.0181977
710	50.45	52.329	58.06329	0.019109863
711	50.5	56.127	58.03051	0.017816737
712	50.55	56.104	58.00538	0.017824041
713	50.6	56.591	57.98798	0.017670654
714	50.65	56.253	57.97845	0.01777683
715	50.7	52.968	57.97701	0.018879323
716	50.75	55.215	57.98394	0.018111021
717	50.8	59.342	57.99962	0.016851471
718	50.85	58.821	58.02448	0.017000731
719	50.9	56.872	58.05912	0.017583345
720	50.95	60.985	58.10424	0.016397475
721	51	59.199	58.16071	0.016892177
722	51.05	60.272	58.22954	0.016591452
723	51.1	57.729	58.31197	0.017322316
724	51.15	56.166	58.40941	0.017804366
725	51.2	60.446	58.52261	0.016543692
726	51.25	61.475	58.6578	0.016266775
727	51.3	58.444	58.81557	0.017110396
728	51.35	58.333	58.99956	0.017142955
729	51.4	58.047	59.21421	0.017227419
730	51.45	58.875	59.46709	0.016985138
731	51.5	57.098	59.7681	0.017513748
732	51.55	60.039	60.13286	0.01665584
733	51.6	61.441	60.59131	0.016275777
734	51.65	62.253	61.20197	0.016063483
735	51.7	55.759	62.07888	0.017934325
736	51.75	58.065	63.43376	0.017222079
737	51.8	65.917	65.62885	0.015170593
738	51.85	66.801	69.21998	0.014969836
739	51.9	72.587	74.94837	0.013776572
740	51.95	78.859	83.62628	0.012680861
741	52	86.865	95.88119	0.011512117
742	52.05	104.622	111.78266	0.009558219
743	52.1	127.075	130.35269	0.007869368
744	52.15	148.841	149.39186	0.006718579
745	52.2	174.264	165.58766	0.00573842
746	52.25	178.666	175.13353	0.005597036
747	52.3	181.379	175.19544	0.005513317
748	52.35	171.152	165.70494	0.00584276
749	52.4	147.217	149.63798	0.006792694
750	52.45	120.564	131.13252	0.00829435
751	52.5	105.209	113.63198	0.00950489
752	52.55	95.157	99.25095	0.010508948
753	52.6	82.881	88.84431	0.012065491
754	52.65	83.333	82.21181	0.012000048
755	52.7	76.477	78.77568	0.013075827
756	52.75	79.932	77.84788	0.012510634
757	52.8	89.283	79.01313	0.01120034
758	52.85	88.421	82.37064	0.011309531
759	52.9	96.63	88.72723	0.010348753
760	52.95	108.953	99.7581	0.00917827
761	53	126.597	118.05511	0.007899081
762	53.05	154.57	146.88107	0.006469561
763	53.1	194.808	189.43489	0.005133259
764	53.15	264.204	247.58391	0.003784954
765	53.2	344.424	320.31791	0.002903398
766	53.25	429.213	402.48312	0.002329846
767	53.3	520.595	484.51316	0.001920879
768	53.35	613.433	553.88802	0.00163017
769	53.4	649.296	599.2072	0.00154013
770	53.45	647.805	616.77916	0.001543674
771	53.5	635.634	613.98297	0.001573232
772	53.55	598.882	602.84601	0.001669778
773	53.6	596.031	590.38083	0.001677765
774	53.65	591.489	574.82207	0.001690649
775	53.7	568.574	548.02769	0.001758786
776	53.75	516.831	502.28132	0.001934868
777	53.8	440.937	437.78573	0.002267898
778	53.85	352.336	363.19192	0.0028382
779	53.9	271.028	289.33549	0.003689656
780	53.95	214.127	224.38696	0.004670126
781	54	162.175	172.62385	0.006166179
782	54.05	127.006	134.81106	0.007873644
783	54.1	107.883	109.22456	0.009269301
784	54.15	87.965	92.94169	0.011368158
785	54.2	80.119	82.96116	0.012481434
786	54.25	65.73	76.86066	0.015213753
787	54.3	64.325	72.98518	0.015546055
788	54.35	63.699	70.3407	0.015698834
789	54.4	67	68.38628	0.014925373
790	54.45	62.617	66.84546	0.015970104
791	54.5	58.972	65.57855	0.0169572
792	54.55	61.684	64.51094	0.016211659
793	54.6	61.229	63.5981	0.01633213
794	54.65	59.361	62.80999	0.016846077
795	54.7	58.553	62.12452	0.017078544
796	54.75	59.701	61.52458	0.016750138
797	54.8	59.938	60.99658	0.016683907
798	54.85	58.332	60.52957	0.017143249
799	54.9	61.09	60.11461	0.016369291
800	54.95	56.227	59.74437	0.01778505
801	55	53.565	59.4128	0.018668907
802	55.05	53.446	59.11484	0.018710474
803	55.1	57.747	58.84626	0.017316917
804	55.15	55.965	58.60347	0.017868311
805	55.2	53.407	58.38346	0.018724137
806	55.25	55.385	58.18364	0.01805543
807	55.3	57.497	58.0018	0.017392212
808	55.35	53.645	57.83604	0.018641066
809	55.4	51.844	57.68472	0.019288635
810	55.45	52.5	57.54643	0.019047619
811	55.5	53.73	57.42007	0.018611576
812	55.55	57.045	57.30652	0.01753002
813	55.6	55.868	57.20212	0.017899334
814	55.65	56.656	57.10508	0.017650381
815	55.7	58.617	57.01626	0.017059897
816	55.75	56.894	56.93514	0.017576546
817	55.8	60.756	56.86255	0.01645928
818	55.85	55.627	56.79689	0.017976882
819	55.9	54.25	56.73543	0.01843318
820	55.95	55.453	56.67971	0.018033289
821	56	49.872	56.62943	0.020051331
822	56.05	54.834	56.58429	0.01823686
823	56.1	58.655	56.54405	0.017048845
824	56.15	56.875	56.50962	0.017582418
825	56.2	56.292	56.49117	0.017764514
826	56.25	55.082	56.46458	0.018154751
827	56.3	54.614	56.44224	0.018310323
828	56.35	57.233	56.42407	0.017472437
829	56.4	54.177	56.41	0.018458017
830	56.45	57.958	56.40001	0.017253873
831	56.5	56.639	56.39407	0.017655679
832	56.55	58.286	56.39257	0.017156779
833	56.6	57.995	56.4005	0.017242866
834	56.65	56.253	56.40719	0.01777683
835	56.7	54.13	56.41796	0.018474044
836	56.75	56.21	56.43309	0.017790429
837	56.8	55.702	56.45273	0.017952677
838	56.85	52.523	56.47702	0.019039278
839	56.9	57.209	56.50612	0.017479767
840	56.95	57.347	56.53994	0.017437704
841	57	56.295	56.57817	0.017763567
842	57.05	54.118	56.62539	0.01847814
843	57.1	53.55	56.68449	0.018674136
844	57.15	54.607	56.74795	0.018312671
845	57.2	52.344	56.81644	0.019104386
846	57.25	56.106	56.89345	0.017823406
847	57.3	56.107	56.98051	0.017823088
848	57.35	56.238	57.0898	0.017781571
849	57.4	58.828	57.20312	0.016998708
850	57.45	57.187	57.32462	0.017486492
851	57.5	57.044	57.46075	0.017530327
852	57.55	57.679	57.61349	0.017337332
853	57.6	60.12	57.78516	0.0166334
854	57.65	60.458	57.97858	0.016540408
855	57.7	60.063	58.19712	0.016649185
856	57.75	61.156	58.44492	0.016351625
857	57.8	57.023	58.72701	0.017536783
858	57.85	55.361	59.04968	0.018063258
859	57.9	60.291	59.4208	0.016586223
860	57.95	59.44	59.85058	0.016823688
861	58	59.18	60.3529	0.016897601
862	58.05	58.922	60.94826	0.01697159
863	58.1	62.496	61.67065	0.016001024
864	58.15	60.567	62.58237	0.016510641
865	58.2	64.168	63.80403	0.015584092
866	58.25	64.571	65.56633	0.015486828
867	58.3	67.557	68.28475	0.014802315
868	58.35	70.099	72.63806	0.014265539
869	58.4	76.092	79.59969	0.013141986
870	58.45	89.499	90.3445	0.011173309
871	58.5	107.584	105.94385	0.009295062
872	58.55	122.375	126.85604	0.008171604
873	58.6	147.961	152.32737	0.006758538
874	58.65	179.176	179.90462	0.005581105
875	58.7	208.99	205.35793	0.004784918
876	58.75	221.949	223.49671	0.00450554
877	58.8	237.768	230.56505	0.00420578
878	58.85	220.141	227.54236	0.004542543
879	58.9	213.839	220.71985	0.004676415
880	58.95	212.682	218.18372	0.004701855
881	59	216.074	226.13151	0.004628044
882	59.05	241.575	247.09753	0.004139501
883	59.1	281.59	279.20895	0.003551262
884	59.15	328.224	316.10877	0.0030467
885	59.2	376.205	348.09496	0.002658125
886	59.25	396.969	365.4068	0.002519088
887	59.3	395.826	362.83692	0.002526363
888	59.35	369.94	341.16196	0.002703141
889	59.4	324.113	304.57791	0.003085344
890	59.45	266.828	259.2418	0.003747733
891	59.5	217.055	212.48382	0.004607127
892	59.55	169.878	170.41628	0.005886577
893	59.6	133.697	136.32632	0.007479599
894	59.65	105.493	110.9288	0.009479302
895	59.7	88.975	93.29828	0.011239112
896	59.75	83.369	81.74607	0.011994866
897	59.8	71.71	74.47198	0.013945056
898	59.85	67.767	69.95226	0.014756445
899	59.9	60.094	67.08449	0.016640596
900	59.95	61.6	65.16397	0.016233766
901	60	63.964	63.78302	0.015633794
902	60.05	62.676	62.7222	0.015955071
903	60.1	63.932	61.86723	0.015641619
904	60.15	59.003	61.15717	0.016948291
905	60.2	59.699	60.55682	0.016750699
906	60.25	57.822	60.04343	0.017294455
907	60.3	52.963	59.60083	0.018881106
908	60.35	57.083	59.21676	0.01751835
909	60.4	55.894	58.88162	0.017891008
910	60.45	55.465	58.58773	0.018029388
911	60.5	58.32	58.32893	0.017146776
912	60.55	60.92	58.10014	0.01641497
913	60.6	60.582	57.89724	0.016506553
914	60.65	57.253	57.71679	0.017466334
915	60.7	58.379	57.55593	0.017129447
916	60.75	61.447	57.41228	0.016274188
917	60.8	58.582	57.28383	0.01707009
918	60.85	58.14	57.16888	0.017199862
919	60.9	59.753	57.06599	0.016735561
920	60.95	57.335	56.97395	0.017441353
921	61	58.716	56.89171	0.017031133
922	61.05	55.57	56.81839	0.017995321
923	61.1	60.176	56.75323	0.016617921
924	61.15	61.631	56.6956	0.016225601
925	61.2	59.234	56.64496	0.016882196
926	61.25	61.291	56.60086	0.016315609
927	61.3	61.931	56.56293	0.016147002
928	61.35	60.106	56.53087	0.016637274
929	61.4	60.056	56.50446	0.016651126
930	61.45	61.571	56.48442	0.016241412
931	61.5	59.69	56.47867	0.016753225
932	61.55	57.869	56.46853	0.017280409
933	61.6	58.968	56.46377	0.01695835
934	61.65	61.615	56.46449	0.016229814
935	61.7	61.168	56.47086	0.016348417
936	61.75	59.346	56.48315	0.016850335
937	61.8	61.72	56.50196	0.016202203
938	61.85	59.622	56.53211	0.016772332
939	61.9	56.03	56.56477	0.017847582
940	61.95	64.24	56.60552	0.015566625
941	62	62.494	56.65532	0.016001536
942	62.05	64.287	56.71536	0.015555244
943	62.1	59.97	56.78715	0.016675004
944	62.15	61.679	56.87257	0.016212974
945	62.2	62.037	56.97399	0.016119413
946	62.25	58.585	57.09446	0.017069216
947	62.3	60.105	57.2379	0.016637551
948	62.35	59.534	57.40953	0.016797124
949	62.4	56.289	57.61669	0.01776546
950	62.45	57.885	57.87063	0.017275633
951	62.5	60.376	58.19078	0.016562873
952	62.55	57.77	58.61408	0.017310023
953	62.6	58.886	59.21371	0.016981965
954	62.65	59.288	60.13125	0.01686682
955	62.7	62.653	61.62173	0.015960928
956	62.75	67.334	64.09755	0.014851338
957	62.8	73.223	68.13672	0.013656911
958	62.85	71.839	74.40514	0.013920016
959	62.9	83.697	83.45263	0.01194786
960	62.95	92.772	95.39185	0.010779114
961	63	105.483	109.53263	0.009480201
962	63.05	112.494	124.07888	0.008889363
963	63.1	118.757	136.06187	0.008420556
964	63.15	133.547	141.96384	0.007488
965	63.2	139.013	139.53862	0.007193572
966	63.25	121.986	129.66143	0.008197662
967	63.3	113.869	115.65995	0.008782021
968	63.35	101.344	100.9877	0.009867382
969	63.4	94.321	87.96824	0.010602093
970	63.45	87.033	77.71084	0.011489895
971	63.5	77.149	70.38062	0.012961931
972	63.55	75.782	65.55275	0.013195746
973	63.6	68.903	62.56455	0.014513156
974	63.65	64.686	60.77666	0.015459296
975	63.7	64.275	59.70191	0.015558149
976	63.75	61.348	59.02507	0.01630045
977	63.8	57.185	58.56596	0.017487103
978	63.85	60.091	58.23032	0.016641427
979	63.9	57.557	57.97094	0.017374081
980	63.95	57.008	57.76371	0.017541398
981	64	57.204	57.59519	0.017481295
982	64.05	57.506	57.45694	0.01738949
983	64.1	58.781	57.34306	0.0170123
984	64.15	61.186	57.24916	0.016343608
985	64.2	58.51	57.17185	0.017091096
986	64.25	58.551	57.10846	0.017079128
987	64.3	56.824	57.05687	0.017598198
988	64.35	55.328	57.01538	0.018074031
989	64.4	60.507	56.98262	0.016527013
990	64.45	57.298	56.95745	0.017452616
991	64.5	58.436	56.93897	0.017112739
992	64.55	63.623	56.92641	0.015717586
993	64.6	57.291	56.91915	0.017454749
994	64.65	58.206	56.91667	0.017180359
995	64.7	60.324	56.91853	0.01657715
996	64.75	58.688	56.92438	0.017039258
997	64.8	61.888	56.93392	0.016158221
998	64.85	62.924	56.94687	0.015892187
999	64.9	61.657	56.96214	0.016218759
1000	64.95	56.127	56.9784	0.017816737
1001	65	56.446	56.99431	0.017716047
1002	65.05	55.758	57.00756	0.017934646
1003	65.1	57.999	57.0189	0.017241677
1004	65.15	61.319	57.03049	0.016308159
1005	65.2	61.782	57.06388	0.016185944
1006	65.25	62.288	57.09983	0.016054457
1007	65.3	58.66	57.13832	0.017047392
1008	65.35	55.945	57.17934	0.017874698
1009	65.4	59.048	57.22291	0.016935375
1010	65.45	63.227	57.26906	0.015816028
1011	65.5	56.613	57.3178	0.017663787
1012	65.55	60.024	57.37005	0.016660003
1013	65.6	57.547	57.43913	0.0173771
1014	65.65	59.658	57.49609	0.016762211
1015	65.7	61.354	57.55592	0.016298856
1016	65.75	56.762	57.61869	0.01761742
1017	65.8	58.083	57.68451	0.017216742
1018	65.85	54.903	57.7535	0.018213941
1019	65.9	59.025	57.82578	0.016941974
1020	65.95	58.583	57.90151	0.017069798
1021	66	56.865	57.98169	0.01758551
1022	66.05	61.308	58.08249	0.016311085
1023	66.1	61.795	58.16962	0.016182539
1024	66.15	63.593	58.26091	0.015725001
1025	66.2	56.051	58.35658	0.017840895
1026	66.25	55.368	58.46161	0.018060974
1027	66.3	64.492	58.5686	0.015505799
1028	66.35	63.282	58.67899	0.015802282
1029	66.4	63.361	58.79487	0.015782579
1030	66.45	66.003	58.9166	0.015150826
1031	66.5	63.117	59.04453	0.015843592
1032	66.55	64.928	59.17909	0.015401676
1033	66.6	64.604	59.32071	0.015478918
1034	66.65	62.358	59.4699	0.016036435
1035	66.7	59.64	59.62719	0.01676727
1036	66.75	61.08	59.79317	0.016371971
1037	66.8	65.51	59.96849	0.015264845
1038	66.85	61.527	60.15387	0.016253027
1039	66.9	64.244	60.35009	0.015565656
1040	66.95	61.596	60.55802	0.01623482
1041	67	63.441	60.77863	0.015762677
1042	67.05	62.084	61.01299	0.01610721
1043	67.1	58.235	61.26229	0.017171804
1044	67.15	56.194	61.52784	0.017795494
1045	67.2	63.339	61.81114	0.015788061
1046	67.25	62.13	62.11382	0.016095284
1047	67.3	61.552	62.43775	0.016246426
1048	67.35	61.287	62.78501	0.016316674
1049	67.4	59.179	63.15797	0.016897886
1050	67.45	57.525	63.55929	0.017383746
1051	67.5	61.94	63.99201	0.016144656
1052	67.55	60.325	64.45957	0.016576875
1053	67.6	60.597	64.96594	0.016502467
1054	67.65	64.302	65.51566	0.015551616
1055	67.7	64.117	66.11394	0.015596488
1056	67.75	64.549	66.76686	0.015492107
1057	67.8	68.376	67.48146	0.014625015
1058	67.85	70.978	68.26599	0.014088873
1059	67.9	78.661	69.13011	0.01271278
1060	67.95	72.517	70.08527	0.01378987
1061	68	73.013	71.14506	0.013696191
1062	68.05	74.426	72.32573	0.013436165
1063	68.1	75.05	73.64688	0.01332445
1064	68.15	77.411	75.13224	0.012918061
1065	68.2	82.88	76.81086	0.012065637
1066	68.25	80.353	78.71856	0.012445086
1067	68.3	78.512	80.89992	0.012736906
1068	68.35	81.428	83.41115	0.012280788
1069	68.4	83.884	86.32429	0.011921225
1070	68.45	86.474	89.73451	0.01156417
1071	68.5	93.834	93.7746	0.010657118
1072	68.55	101.718	98.64744	0.009831102
1073	68.6	103.55	104.70002	0.00965717
1074	68.65	109.61	112.58281	0.009123255
1075	68.7	115.743	123.55532	0.008639831
1076	68.75	128.01	139.98154	0.00781189
1077	68.8	160.985	165.95428	0.006211759
1078	68.85	206.709	207.76115	0.004837719
1079	68.9	260.871	273.62406	0.003833312
1080	68.95	343.065	372.04394	0.0029149
1081	69	470.082	508.44807	0.002127288
1082	69.05	633.803	680.6132	0.001577777
1083	69.1	823.655	873.84419	0.001214101
1084	69.15	1028.834	1056.98706	0.000971974
1085	69.2	1177.008	1183.60595	0.000849612
1086	69.25	1203.649	1210.45762	0.000830807
1087	69.3	1130.366	1132.14877	0.000884669
1088	69.35	1021.646	990.04777	0.000978813
1089	69.4	877.643	840.71113	0.001139415
1090	69.45	756.822	729.12022	0.001321315
1091	69.5	707.381	682.70396	0.001413665
1092	69.55	738.722	711.64077	0.001353689
1093	69.6	853.053	809.15878	0.00117226
1094	69.65	980.521	951.44712	0.001019866
1095	69.7	1153.029	1097.60219	0.000867281
1096	69.75	1287.875	1193.53976	0.000776473
1097	69.8	1285.636	1191.99356	0.000777825
1098	69.85	1182.91	1085.61176	0.000845373
1099	69.9	978.206	911.51339	0.00102228
1100	69.95	740.292	718.23756	0.001350818
1101	70	532.708	540.75355	0.001877201
1102	70.05	378.281	396.90334	0.002643537
1103	70.1	275.584	291.17887	0.003628658
1104	70.15	218.707	219.43634	0.004572327
1105	70.2	170.687	173.54275	0.005858677
1106	70.25	133.117	145.04417	0.007512189
1107	70.3	112.928	127.19264	0.0088552
1108	70.35	105.839	115.50535	0.009448313
1109	70.4	94.021	107.22822	0.010635922
1110	70.45	85.032	100.96727	0.011760278
1111	70.5	82.39	95.98161	0.012137395
1112	70.55	74.804	91.88186	0.013368269
1113	70.6	75.012	88.44553	0.0133312
1114	70.65	69.505	85.52971	0.014387454
1115	70.7	66.518	83.03334	0.015033525
1116	70.75	68.476	80.87943	0.014603657
1117	70.8	65.701	79.00622	0.015220468
1118	70.85	65.665	77.3834	0.015228813
1119	70.9	66.533	75.96378	0.015030135
1120	70.95	62.13	74.71715	0.016095284
1121	71	67.459	73.6188	0.014823819
1122	71.05	64.405	72.64788	0.015526745
1123	71.1	67.56	71.78335	0.014801658
1124	71.15	67.137	71.02786	0.014894916
1125	71.2	66.911	70.36055	0.014945226
1126	71.25	66.515	69.77213	0.015034203
1127	71.3	69.397	69.25488	0.014409845
1128	71.35	68.696	68.80244	0.014556888
1129	71.4	66.348	68.40959	0.015072044
1130	71.45	64.28	68.07214	0.015556938
1131	71.5	68.572	67.78677	0.014583212
1132	71.55	66.48	67.55099	0.015042118
1133	71.6	62.982	67.36311	0.015877552
1134	71.65	65.758	67.22217	0.015207275
1135	71.7	69.077	67.12798	0.014476599
1136	71.75	73.003	67.08119	0.013698067
1137	71.8	67.517	67.0833	0.014811085
1138	71.85	65.649	67.13685	0.015232524
1139	71.9	64.003	67.24557	0.015624268
1140	71.95	65.431	67.41466	0.015283276
1141	72	70.021	67.6512	0.01428143
1142	72.05	62.759	67.96493	0.01593397
1143	72.1	65.891	68.3697	0.01517658
1144	72.15	67.598	68.8867	0.014793337
1145	72.2	65.424	69.55158	0.015284911
1146	72.25	67.132	70.42904	0.014896026
1147	72.3	70.257	71.63909	0.014233457
1148	72.35	70.936	73.39666	0.014097214
1149	72.4	74.364	76.0558	0.013447367
1150	72.45	74.963	80.13263	0.013339914
1151	72.5	88.097	86.26586	0.011351124
1152	72.55	95.28	95.07829	0.010495382
1153	72.6	104.663	106.94036	0.009554475
1154	72.65	118.348	121.67778	0.008449657
1155	72.7	134.146	138.25408	0.007454564
1156	72.75	153.542	154.48782	0.006512876
1157	72.8	163.158	167.36936	0.006129028
1158	72.85	178.534	174.9467	0.005601174
1159	72.9	179.079	178.28249	0.005584128
1160	72.95	179.635	180.18386	0.005566844
1161	73	177.104	182.40127	0.0056464
1162	73.05	180.05	184.77167	0.005554013
1163	73.1	182.184	186.78576	0.005488956
1164	73.15	191.033	190.1528	0.005234698
1165	73.2	193.573	199.05589	0.00516601
1166	73.25	222.202	217.36146	0.00450041
1167	73.3	234.538	246.21255	0.004263701
1168	73.35	272.242	282.85394	0.003673203
1169	73.4	315.504	319.88505	0.003169532
1170	73.45	344.195	345.73646	0.00290533
1171	73.5	361.909	349.78896	0.002763126
1172	73.55	353.983	331.26722	0.002824994
1173	73.6	324.142	300.36531	0.003085068
1174	73.65	289.056	269.42417	0.003459537
1175	73.7	261.542	246.41302	0.003823478
1176	73.75	251.728	233.77246	0.003972542
1177	73.8	266.145	229.01836	0.00375735
1178	73.85	259.917	225.96032	0.003847382
1179	73.9	249.065	218.18186	0.004015016
1180	73.95	231.386	204.02246	0.004321783
1181	74	208.746	187.32152	0.004790511
1182	74.05	187.32	173.52438	0.005338458
1183	74.1	175.212	167.00766	0.005707372
1184	74.15	172.555	170.60831	0.005795254
1185	74.2	185.772	185.62794	0.005382943
1186	74.25	205.607	211.77887	0.004863648
1187	74.3	237.073	247.00765	0.00421811
1188	74.35	270.903	287.09845	0.003691358
1189	74.4	299.552	326.25285	0.003338319
1190	74.45	334.137	360.63025	0.002992784
1191	74.5	375.549	391.54165	0.002662768
1192	74.55	430.591	421.37623	0.002322389
1193	74.6	474.909	446.48761	0.002105667
1194	74.65	507.091	455.41974	0.001972033
1195	74.7	497.683	436.31001	0.002009311
1196	74.75	461.743	389.25083	0.002165707
1197	74.8	381.222	326.96443	0.002623143
1198	74.85	297.046	263.5975	0.003366482
1199	74.9	218.289	208.13581	0.004581083
1200	74.95	162.613	164.45158	0.00614957
1201	75	134.607	132.84556	0.007429034
1202	75.05	118.373	111.49306	0.008447872
1203	75.1	96.352	97.72838	0.010378612
1204	75.15	87.402	88.99788	0.011441386
1205	75.2	83.259	83.34287	0.012010714
1206	75.25	78.145	79.47846	0.012796724
1207	75.3	71.971	76.6542	0.013894485
1208	75.35	67.699	74.4635	0.014771267
1209	75.4	63.045	72.69159	0.015861686
1210	75.45	68.282	71.22051	0.014645148
1211	75.5	68.346	69.97925	0.014631434
1212	75.55	62.934	68.92029	0.015889662
1213	75.6	66.75	68.00917	0.014981273
1214	75.65	63.249	67.21968	0.015810527
1215	75.7	67.344	66.53134	0.014849133
1216	75.75	66.588	65.92787	0.015017721
1217	75.8	62.554	65.39623	0.015986188
1218	75.85	62.852	64.92584	0.015910393
1219	75.9	61.628	64.50797	0.016226391
1220	75.95	62.855	64.1352	0.015909633
1221	76	65.642	63.80109	0.015234149
1222	76.05	67.369	63.4985	0.014843622
1223	76.1	66.058	63.23091	0.015138212
1224	76.15	67.089	62.99032	0.014905573
1225	76.2	65.181	62.77378	0.015341894
1226	76.25	68.835	62.57877	0.014527493
1227	76.3	66.351	62.40314	0.015071363
1228	76.35	65.318	62.24493	0.015309716
1229	76.4	65.711	62.10209	0.015218152
1230	76.45	66.144	61.97248	0.015118529
1231	76.5	67.866	61.85254	0.014734919
1232	76.55	63.365	61.75044	0.015781583
1233	76.6	67.489	61.65904	0.014817229
1234	76.65	66.718	61.57649	0.014988459
1235	76.7	60.691	61.50745	0.016476908
1236	76.75	64.162	61.4481	0.015585549
1237	76.8	70.853	61.39802	0.014113728
1238	76.85	69.778	61.35688	0.014331165
1239	76.9	63.858	61.32442	0.015659745
1240	76.95	66.988	61.30046	0.014928047
1241	77	66.467	61.2849	0.01504506
1242	77.05	64.453	61.27771	0.015515182
1243	77.1	61.057	61.27894	0.016378138
1244	77.15	61.718	61.28872	0.016202729
1245	77.2	65.095	61.32214	0.015362163
1246	77.25	63.951	61.35086	0.015636972
1247	77.3	64.047	61.38801	0.015613534
1248	77.35	63.004	61.43515	0.015872008
1249	77.4	59.425	61.49289	0.016827934
1250	77.45	62.861	61.56204	0.015908115
1251	77.5	62.805	61.64351	0.015922299
1252	77.55	64.22	61.73846	0.015571473
1253	77.6	65.027	61.84825	0.015378228
1254	77.65	66.298	61.98053	0.015083411
1255	77.7	64.895	62.12908	0.015409508
1256	77.75	63.82	62.29466	0.015669069
1257	77.8	65.364	62.48393	0.015298941
1258	77.85	64.189	62.70038	0.015578993
1259	77.9	64.783	62.94824	0.015436148
1260	77.95	61.502	63.24372	0.016259634
1261	78	68.896	63.57174	0.014514631
1262	78.05	67.434	63.95676	0.014829315
1263	78.1	67.331	64.39683	0.014852
1264	78.15	65.991	64.91105	0.015153582
1265	78.2	68.717	65.51624	0.01455244
1266	78.25	69.387	66.235	0.014411922
1267	78.3	68.152	67.09975	0.014673084
1268	78.35	72.902	68.1613	0.013717045
1269	78.4	78.209	69.50772	0.012786252
1270	78.45	75.861	71.30174	0.013182004
1271	78.5	84.997	73.84593	0.011765121
1272	78.55	83.291	77.67478	0.012006099
1273	78.6	87.998	83.64648	0.011363895
1274	78.65	100.593	92.96489	0.00994105
1275	78.7	117.025	107.03173	0.008545183
1276	78.75	142.578	127.05168	0.007013705
1277	78.8	155.604	153.40537	0.00642657
1278	78.85	184.109	184.87772	0.005431565
1279	78.9	214.597	217.76712	0.004659897
1280	78.95	224.862	245.14342	0.004447172
1281	79	233.811	258.36181	0.004276959
1282	79.05	238.32	253.31923	0.004196039
1283	79.1	233.51	235.15046	0.004282472
1284	79.15	209.967	213.46675	0.004762653
1285	79.2	197.052	195.61766	0.005074803
1286	79.25	188.544	184.72365	0.005303802
1287	79.3	180.102	180.01324	0.005552409
1288	79.35	175.874	177.45584	0.005685889
1289	79.4	164.787	171.63373	0.00606844
1290	79.45	151.704	159.63985	0.006591784
1291	79.5	138.02	143.07624	0.007245327
1292	79.55	126.714	125.44738	0.007891788
1293	79.6	107.416	109.42403	0.0093096
1294	79.65	97.316	96.3334	0.010275803
1295	79.7	92.23	86.49293	0.010842459
1296	79.75	86.324	79.57521	0.011584264
1297	79.8	76.024	74.93719	0.013153741
1298	79.85	77.324	71.8903	0.012932595
1299	79.9	70.465	69.86434	0.014191443
1300	79.95	71.477	68.46306	0.013990514
1301	80	71.813	67.43568	0.013925055
1302	80.05	65.797	66.64365	0.015198261
1303	80.1	64.149	66.01035	0.015588708
1304	80.15	67.631	65.49249	0.014786119
1305	80.2	73.572	65.06374	0.013592127
1306	80.25	67.97	64.70653	0.014712373
1307	80.3	66.482	64.4079	0.015041665
1308	80.35	72.456	64.15742	0.01380148
1309	80.4	68.966	63.94831	0.014499899
1310	80.45	68.59	63.77878	0.014579385
1311	80.5	70.254	63.63897	0.014234065
1312	80.55	70.906	63.54286	0.014103179
1313	80.6	64.612	63.45507	0.015477001
1314	80.65	65.04	63.38862	0.015375154
1315	80.7	66.201	63.34209	0.015105512
1316	80.75	62.04	63.31395	0.016118633
1317	80.8	65.166	63.30296	0.015345426
1318	80.85	62.35	63.30822	0.016038492
1319	80.9	59.265	63.32904	0.016873365
1320	80.95	63.365	63.36499	0.015781583
1321	81	65.763	63.41582	0.015206119
1322	81.05	65.498	63.48149	0.015267642
1323	81.1	66.081	63.56215	0.015132943
1324	81.15	67.44	63.65813	0.014827995
1325	81.2	67.335	63.76994	0.014851118
1326	81.25	65.971	63.89833	0.015158176
1327	81.3	67.839	64.04421	0.014740783
1328	81.35	67.8	64.20878	0.014749263
1329	81.4	65.436	64.39349	0.015282108
1330	81.45	65.432	64.60008	0.015283042
1331	81.5	69.233	64.83067	0.014443979
1332	81.55	69.083	65.08779	0.014475341
1333	81.6	63.573	65.37448	0.015729948
1334	81.65	62.693	65.69435	0.015950744
1335	81.7	66.907	66.05179	0.014946119
1336	81.75	68.055	66.45206	0.014693998
1337	81.8	68.917	66.90156	0.014510208
1338	81.85	68.098	67.4081	0.014684719
1339	81.9	67.713	67.98128	0.014768213
1340	81.95	66.646	68.633	0.015004651
1341	82	70.341	69.37821	0.01421646
1342	82.05	70.871	70.2359	0.014110144
1343	82.1	70.35	71.23083	0.014214641
1344	82.15	67.018	72.39671	0.014921364
1345	82.2	70.015	73.78268	0.014282654
1346	82.25	74.105	75.46751	0.013494366
1347	82.3	71.619	77.58863	0.013962775
1348	82.35	73.386	80.39621	0.013626577
1349	82.4	75.038	84.33852	0.013326581
1350	82.45	86.523	90.1671	0.011557621
1351	82.5	92.3	99.01338	0.010834236
1352	82.55	106.71	112.34536	0.009371193
1353	82.6	122.786	131.70033	0.008144251
1354	82.65	154.836	158.14572	0.006458446
1355	82.7	187.983	191.51539	0.00531963
1356	82.75	230.331	229.46401	0.004341578
1357	82.8	273.285	266.29587	0.003659184
1358	82.85	305.297	292.45619	0.003275499
1359	82.9	330.749	298.37265	0.003023441
1360	82.95	321.27	282.99749	0.003112647
1361	83	287.87	255.51222	0.00347379
1362	83.05	258.052	227.40463	0.003875188
1363	83.1	238.436	207.06389	0.004193998
1364	83.15	224.926	199.48723	0.004445907
1365	83.2	232.151	206.99588	0.004307541
1366	83.25	241.918	229.45923	0.004133632
1367	83.3	274.465	264.10106	0.003643452
1368	83.35	304.957	304.85701	0.003279151
1369	83.4	327.653	341.39454	0.003052009
1370	83.45	343.473	360.52658	0.002911437
1371	83.5	349.883	354.42344	0.002858098
1372	83.55	331.898	328.73751	0.003012974
1373	83.6	310.451	297.58646	0.00322112
1374	83.65	300.054	273.72948	0.003332733
1375	83.7	295.933	265.19426	0.003379143
1376	83.75	310.721	275.54006	0.003218321
1377	83.8	313.77	304.15222	0.003187048
1378	83.85	352.125	345.97899	0.002839901
1379	83.9	375.851	390.72243	0.002660629
1380	83.95	403.585	423.22615	0.002477793
1381	84	412.489	430.35758	0.002424307
1382	84.05	401.225	411.92583	0.002492367
1383	84.1	364.805	379.27646	0.00274119
1384	84.15	341.945	343.08007	0.002924447
1385	84.2	308.732	307.03704	0.003239055
1386	84.25	279.185	270.1001	0.003581854
1387	84.3	246.658	232.20835	0.004054196
1388	84.35	206.388	196.20868	0.004845243
1389	84.4	174.941	165.03821	0.005716213
1390	84.45	161.839	139.93636	0.00617898
1391	84.5	133.662	120.79205	0.007481558
1392	84.55	120.394	106.81738	0.008306062
1393	84.6	112.995	96.95215	0.008849949
1394	84.65	102.741	90.10854	0.009733213
1395	84.7	95.441	85.3402	0.010477677
1396	84.75	88.889	81.92717	0.011249986
1397	84.8	79.283	79.38102	0.012613044
1398	84.85	81.961	77.39432	0.012200925
1399	84.9	76.289	75.7868	0.01310805
1400	84.95	68.406	74.45243	0.014618601
1401	85	68.367	73.32636	0.01462694
1402	85.05	66.66	72.36593	0.0150015
1403	85.1	70.157	71.54083	0.014253745
1404	85.15	66.463	70.82828	0.015045965
1405	85.2	66.295	70.21054	0.015084094
1406	85.25	69.563	69.67352	0.014375458
1407	85.3	67.188	69.20577	0.01488361
1408	85.35	68.436	68.79804	0.014612192
1409	85.4	66.974	68.4436	0.014931167
1410	85.45	65.529	68.13597	0.015260419
1411	85.5	64.91	67.86853	0.015405947
1412	85.55	64.674	67.63762	0.015462164
1413	85.6	68.532	67.43981	0.014591724
1414	85.65	68.255	67.2722	0.014650941
1415	85.7	66.143	67.1324	0.015118758
1416	85.75	63.05	67.01843	0.015860428
1417	85.8	65.405	66.92873	0.015289351
1418	85.85	60.813	66.86201	0.016443852
1419	85.9	64.117	66.81731	0.015596488
1420	85.95	63.108	66.79392	0.015845852
1421	86	63.801	66.79138	0.015673736
1422	86.05	67.663	66.8095	0.014779126
1423	86.1	67.627	66.84831	0.014786993
1424	86.15	68.806	66.90809	0.014533616
1425	86.2	64.557	66.98937	0.015490187
1426	86.25	64.048	67.09295	0.01561329
1427	86.3	68.482	67.21991	0.014602377
1428	86.35	68.308	67.37534	0.014639574
1429	86.4	66.471	67.54794	0.015044155
1430	86.45	68.9	67.7078	0.014513788
1431	86.5	67.352	67.94667	0.014847369
1432	86.55	66.878	68.22028	0.0149526
1433	86.6	66.975	68.53262	0.014930944
1434	86.65	66.473	68.88856	0.015043702
1435	86.7	66.367	69.29403	0.015067729
1436	86.75	69.097	69.76028	0.014472408
1437	86.8	71.96	70.29381	0.013896609
1438	86.85	69.502	70.89975	0.014388075
1439	86.9	67.805	71.59556	0.014748175
1440	86.95	70.316	72.39616	0.014221514
1441	87	72.736	73.30351	0.01374835
1442	87.05	73.053	74.39194	0.013688692
1443	87.1	76.764	75.69834	0.01302694
1444	87.15	71.262	77.27413	0.014032724
1445	87.2	74.917	79.23229	0.013348105
1446	87.25	74.668	81.76914	0.013392618
1447	87.3	74.561	85.2335	0.013411837
1448	87.35	79.899	90.21708	0.012515801
1449	87.4	82.297	97.6414	0.012151111
1450	87.45	89.876	108.77726	0.011126441
1451	87.5	106.434	125.10224	0.009395494
1452	87.55	136.347	147.93263	0.007334228
1453	87.6	177.661	177.83185	0.005628697
1454	87.65	226.216	213.81467	0.004420554
1455	87.7	289.142	252.28299	0.003458508
1456	87.75	333.139	285.77034	0.00300175
1457	87.8	356.257	303.58087	0.002806962
1458	87.85	324.057	298.26163	0.003085877
1459	87.9	287.702	273.00653	0.003475819
1460	87.95	230.393	238.2905	0.00434041
1461	88	191.275	203.45818	0.005228075
1462	88.05	167.243	173.79322	0.005979323
1463	88.1	148.923	151.41071	0.00671488
1464	88.15	133.193	136.49706	0.007507902
1465	88.2	126.909	128.25266	0.007879662
1466	88.25	122.004	125.66958	0.008196453
1467	88.3	132.047	128.16698	0.007573061
1468	88.35	139.374	136.0645	0.007174939
1469	88.4	150.367	150.89042	0.006650395
1470	88.45	177.3	175.47419	0.005640158
1471	88.5	202.429	213.67069	0.004940004
1472	88.55	271.58	269.52243	0.003682156
1473	88.6	349.441	345.77816	0.002861713
1474	88.65	466.677	441.85282	0.00214281
1475	88.7	596.643	551.18681	0.001676044
1476	88.75	741.318	657.70023	0.001348949
1477	88.8	857.27	733.60947	0.001166494
1478	88.85	876.565	748.89018	0.001140817
1479	88.9	782.234	696.27295	0.00127839
1480	88.95	643.518	598.64912	0.001553958
1481	89	478.419	487.03987	0.002090218
1482	89.05	363.603	382.82155	0.002750252
1483	89.1	265.276	296.30265	0.003769659
1484	89.15	192.733	230.31834	0.005188525
1485	89.2	150.227	183.25681	0.006656593
1486	89.25	129.834	151.3276	0.007702143
1487	89.3	109.95	130.2618	0.009095043
1488	89.35	100.5	116.35204	0.009950249
1489	89.4	99.347	106.89693	0.010065729
1490	89.45	82.903	100.14742	0.01206229
1491	89.5	76.519	95.06662	0.01306865
1492	89.55	79.696	91.06903	0.012547681
1493	89.6	77.05	87.82453	0.012978585
1494	89.65	69.62	85.14132	0.014363689
1495	89.7	72.493	82.88956	0.013794435
1496	89.75	71.546	80.98126	0.013977022
1497	89.8	71.695	79.35297	0.013947974
1498	89.85	70.423	77.9606	0.014199906
1499	89.9	69.233	76.75751	0.014443979
1500	89.95	69.57	75.71495	0.014374012
1501	90	67.164	74.80909	0.014888929
1502	90.05	71.496	74.01996	0.013986796
1503	90.1	71.609	73.33123	0.013964725
1504	90.15	71.887	72.73307	0.013910721
1505	90.2	72.841	72.21496	0.013728532
1506	90.25	64.745	71.76429	0.015445208
1507	90.3	63.562	71.37829	0.01573267
1508	90.35	70.291	71.04277	0.014226572
1509	90.4	73.738	70.76278	0.013561529
1510	90.45	68.461	70.53247	0.014606856
1511	90.5	72.348	70.34737	0.013822082
1512	90.55	65.535	70.2005	0.015259022
1513	90.6	65.457	70.09064	0.015277205
1514	90.65	67.318	70.01676	0.014854868
1515	90.7	67.572	69.98031	0.014799029
1516	90.75	79.541	69.98256	0.012572133
1517	90.8	74.941	70.01276	0.01334383
1518	90.85	69.989	70.097	0.01428796
1519	90.9	70.799	70.22563	0.014124493
1520	90.95	74.179	70.40155	0.013480904
1521	91	71.491	70.62992	0.013987775
1522	91.05	68.081	70.91695	0.014688386
1523	91.1	78.726	71.27048	0.012702284
1524	91.15	69.178	71.7314	0.014455463
1525	91.2	73.58	72.27023	0.01359065
1526	91.25	79.681	72.90512	0.012550043
1527	91.3	76.112	73.66371	0.013138533
1528	91.35	75.018	74.57926	0.013330134
1529	91.4	78.906	75.69964	0.012673307
1530	91.45	83.35	77.09996	0.0119976
1531	91.5	80.483	78.90618	0.012424984
1532	91.55	83.059	81.33652	0.012039634
1533	91.6	90.108	84.7591	0.011097794
1534	91.65	92.424	89.75471	0.010819701
1535	91.7	100.174	97.15135	0.00998263
1536	91.75	119.294	107.9745	0.008382651
1537	91.8	144.729	123.2972	0.006909465
1538	91.85	146.995	143.86597	0.006802952
1539	91.9	164.188	169.66202	0.006090579
1540	91.95	190.18	199.25648	0.005258176
1541	92	211.808	228.90132	0.004721257
1542	92.05	218.552	251.84908	0.00457557
1543	92.1	222.066	260.40693	0.004503166
1544	92.15	213.797	251.91278	0.004677334
1545	92.2	216.406	231.71055	0.004620944
1546	92.25	207.424	208.08881	0.004821043
1547	92.3	193.003	187.07763	0.005181267
1548	92.35	180.364	171.5269	0.005544344
1549	92.4	174.307	161.8817	0.005737004
1550	92.45	164.337	157.00556	0.006085057
1551	92.5	171.436	155.40999	0.005833081
1552	92.55	174.111	156.7859	0.005743463
1553	92.6	174.167	162.11884	0.005741616
1554	92.65	180.877	172.31479	0.005528619
1555	92.7	193.501	187.03978	0.005167932
1556	92.75	204.3	204.0461	0.004894763
1557	92.8	222.501	218.62264	0.004494362
1558	92.85	222.554	224.39862	0.004493292
1559	92.9	204.97	217.35447	0.004878763
1560	92.95	193.642	199.54485	0.005164169
1561	93	173.751	176.84334	0.005755363
1562	93.05	160.765	154.43494	0.006220259
1563	93.1	137.218	135.30794	0.007287674
1564	93.15	124.123	120.77607	0.008056525
1565	93.2	114.333	111.17985	0.008746381
1566	93.25	110.697	106.36709	0.009033668
1567	93.3	107.801	106.00275	0.009276352
1568	93.35	110.939	109.71428	0.009013963
1569	93.4	111.236	117.06097	0.008989895
1570	93.45	118.958	127.34407	0.008406328
1571	93.5	127.751	139.26493	0.007827727
1572	93.55	133.013	150.45967	0.007518062
1573	93.6	136.692	157.3963	0.007315717
1574	93.65	132.281	156.85947	0.007559665
1575	93.7	128.192	148.68316	0.007800799
1576	93.75	122.221	135.88047	0.0081819
1577	93.8	109.668	121.91231	0.00911843
1578	93.85	99.21	109.04076	0.010079629
1579	93.9	92.849	98.32292	0.010770175
1580	93.95	85.416	90.02813	0.011707408
1581	94	84.21	83.96375	0.011875074
1582	94.05	74.186	79.70823	0.013479632
1583	94.1	77.271	76.78438	0.012941466
1584	94.15	70.594	74.77002	0.01416551
1585	94.2	71.753	73.34591	0.0139367
1586	94.25	72.087	72.29688	0.013872127
1587	94.3	68.78	71.48953	0.01453911
1588	94.35	66.574	70.8454	0.015020879
1589	94.4	68.023	70.31808	0.01470091
1590	94.45	67.928	69.87947	0.01472147
1591	94.5	68.392	69.51147	0.014621593
1592	94.55	66.979	69.20139	0.014930053
1593	94.6	65.476	68.93983	0.015272772
1594	94.65	71.188	68.71954	0.014047311
1595	94.7	69.279	68.53484	0.014434388
1596	94.75	66.822	68.38121	0.014965131
1597	94.8	67.316	68.25502	0.014855309
1598	94.85	65.08	68.15335	0.015365704
1599	94.9	64.064	68.07389	0.015609391
1600	94.95	75.381	68.01475	0.013265942
1601	95	70.647	67.97448	0.014154883
1602	95.05	66.912	67.95194	0.014945002
1603	95.1	70.44	67.94624	0.014196479
1604	95.15	68.552	67.95676	0.014587466
1605	95.2	73.74	67.98309	0.013561161
1606	95.25	67.604	68.02505	0.014792024
1607	95.3	67.065	68.08263	0.014910907
1608	95.35	71.319	68.15602	0.014021509
1609	95.4	67.555	68.2456	0.014802753
1610	95.45	68.205	68.35192	0.014661682
1611	95.5	69.864	68.47576	0.014313523
1612	95.55	67.56	68.61811	0.014801658
1613	95.6	63.279	68.78018	0.015803031
1614	95.65	66.382	68.96348	0.015064325
1615	95.7	67.722	69.16981	0.01476625
1616	95.75	64.707	69.40134	0.015454279
1617	95.8	72.49	69.66062	0.013795006
1618	95.85	69.055	69.95074	0.014481211
1619	95.9	68.168	70.27534	0.01466964
1620	95.95	74.662	70.63879	0.013393694
1621	96	69.693	71.04632	0.014348643
1622	96.05	72.328	71.50423	0.013825904
1623	96.1	69.546	72.02012	0.014378972
1624	96.15	66.36	72.60327	0.015069319
1625	96.2	72.771	73.26503	0.013741738
1626	96.25	66.271	74.01946	0.015089557
1627	96.3	69.723	74.88415	0.014342469
1628	96.35	80.93	75.88156	0.012356357
1629	96.4	76.292	77.04122	0.013107534
1630	96.45	80.838	78.40385	0.01237042
1631	96.5	76.937	80.02905	0.012997647
1632	96.55	77.499	82.0008	0.012903392
1633	96.6	78.037	84.49455	0.012814434
1634	96.65	84.612	87.75805	0.011818655
1635	96.7	97.271	92.21064	0.010280556
1636	96.75	105.274	98.49327	0.009499022
1637	96.8	113.337	107.50137	0.008823244
1638	96.85	123.747	120.34392	0.008081004
1639	96.9	141.419	138.18243	0.007071186
1640	96.95	173.278	161.92649	0.005771073
1641	97	209.811	191.79121	0.004766194
1642	97.05	242.374	226.69667	0.004125855
1643	97.1	273.83	263.34564	0.003651901
1644	97.15	302.197	295.22712	0.0033091
1645	97.2	306.316	313.2986	0.003264603
1646	97.25	288.29	311.08083	0.003468729
1647	97.3	271.287	290.5579	0.003686133
1648	97.35	246.491	260.44724	0.004056943
1649	97.4	201.304	229.61909	0.004967611
1650	97.45	191.921	203.87448	0.005210477
1651	97.5	178.844	186.261	0.005591465
1652	97.55	173.263	178.0335	0.005771573
1653	97.6	171.395	179.25255	0.005834476
1654	97.65	186.716	189.07375	0.005355727
1655	97.7	206.904	205.79729	0.004833159
1656	97.75	215.685	226.60863	0.004636391
1657	97.8	238.187	247.16862	0.004198382
1658	97.85	256.285	262.26087	0.003901906
1659	97.9	262.447	268.94256	0.003810293
1660	97.95	256.131	269.57562	0.003904252
1661	98	270.641	270.08961	0.003694932
1662	98.05	271.551	275.66145	0.00368255
1663	98.1	295.374	288.37998	0.003385538
1664	98.15	319.848	306.66417	0.003126485
1665	98.2	331.13	325.17936	0.003019962
1666	98.25	347.718	336.34496	0.002875894
1667	98.3	355.671	334.44123	0.002811587
1668	98.35	335.547	318.53117	0.002980208
1669	98.4	311.126	291.20987	0.003214132
1670	98.45	264.476	256.95016	0.003781061
1671	98.5	222.811	221.09172	0.004488109
1672	98.55	187.478	188.03413	0.005333959
1673	98.6	151.944	160.16065	0.006581372
1674	98.65	126.291	138.10106	0.007918221
1675	98.7	110.226	121.44341	0.00907227
1676	98.75	97.237	109.28706	0.010284151
1677	98.8	88.718	100.58605	0.01127167
1678	98.85	88.178	94.38198	0.011340697
1679	98.9	83.994	89.90185	0.011905612
1680	98.95	80.472	86.57978	0.012426683
1681	99	79.03	84.03179	0.012653423
1682	99.05	71.912	82.01112	0.013905885
1683	99.1	74.578	80.36362	0.01340878
1684	99.15	72.921	78.99293	0.013713471
1685	99.2	73.465	77.83683	0.013611924
1686	99.25	75.088	76.85305	0.013317707
1687	99.3	73.56	76.01121	0.013594345
1688	99.35	70.843	75.28854	0.014115721
1689	99.4	70.324	74.6671	0.014219896
1690	99.45	66.205	74.13289	0.015104599
1691	99.5	66.989	73.6747	0.014927824
1692	99.55	65.981	73.28356	0.015155878
1693	99.6	66.864	72.95232	0.014955731
1694	99.65	63.143	72.6753	0.015837068
1695	99.7	65.719	72.44802	0.0152163
1696	99.75	68.92	72.26708	0.014509576
1697	99.8	69.788	72.13009	0.014329111
1698	99.85	68.153	72.03552	0.014672868
1699	99.9	69.76	71.9827	0.014334862
1700	99.95	73.102	71.97185	0.013679516
1701	100	71.394	72.00409	0.014006779
1702	100.05	66.696	72.08163	0.014993403
1703	100.1	69.683	72.20799	0.014350702
1704	100.15	71.271	72.38847	0.014030952
1705	100.2	69.946	72.6311	0.014296743
1706	100.25	67.748	72.94834	0.014760583
1707	100.3	63.356	73.36015	0.015783825
1708	100.35	70.864	73.89891	0.014111538
1709	100.4	73.595	74.61655	0.01358788
1710	100.45	75.739	75.59294	0.013203237
1711	100.5	80.68	76.94309	0.012394646
1712	100.55	79.585	78.81792	0.012565182
1713	100.6	80.402	81.39329	0.012437502
1714	100.65	88.307	84.8418	0.011324131
1715	100.7	88.023	89.2812	0.011360667
1716	100.75	91.449	94.721	0.010935057
1717	100.8	98.229	100.9723	0.010180293
1718	100.85	99.1	107.48304	0.010090817
1719	100.9	101.601	113.22758	0.009842423
1720	100.95	106.387	116.83658	0.009399645
1721	101	106.719	117.34791	0.009370403
1722	101.05	104.369	115.037	0.009581389
1723	101.1	101.104	111.20959	0.009890806
1724	101.15	103.515	107.2806	0.009660436
1725	101.2	99.169	104.26471	0.010083796
1726	101.25	97.059	102.81347	0.010303012
1727	101.3	101.018	103.41781	0.009899226
1728	101.35	102.716	106.56642	0.009735582
1729	101.4	113.484	112.88184	0.008811815
1730	101.45	118.953	123.16017	0.008406682
1731	101.5	134.656	138.28217	0.007426331
1732	101.55	156.483	159.06213	0.006390471
1733	101.6	172.55	185.92791	0.005795422
1734	101.65	204.799	218.46037	0.004882836
1735	101.7	241.364	254.83934	0.00414312
1736	101.75	278.184	291.34884	0.003594743
1737	101.8	307.636	322.13261	0.003250595
1738	101.85	341.878	339.72444	0.00292502
1739	101.9	329.04	337.97303	0.003039144
1740	101.95	316.447	316.73044	0.003160087
1741	102	267.068	282.57076	0.003744365
1742	102.05	232.805	243.88143	0.00429544
1743	102.1	197.612	206.84933	0.005060421
1744	102.15	160.455	174.72918	0.006232277
1745	102.2	140.758	148.68537	0.007104392
1746	102.25	116.464	128.63502	0.008586344
1747	102.3	106.282	113.82705	0.009408931
1748	102.35	96.269	103.19842	0.01038756
1749	102.4	93.492	95.67467	0.010696102
1750	102.45	88.912	90.33067	0.011247076
1751	102.5	83.838	86.45727	0.011927765
1752	102.55	75.085	83.55818	0.013318239
1753	102.6	76.217	81.30841	0.013120432
1754	102.65	75.817	79.504	0.013189654
1755	102.7	75.682	78.01869	0.013213181
1756	102.75	77.964	76.7729	0.012826433
1757	102.8	74.309	75.71416	0.01345732
1758	102.85	70.588	74.80578	0.014166714
1759	102.9	71.946	74.02095	0.013899313
1760	102.95	73.421	73.33871	0.013620081
1761	103	72.054	72.7425	0.01387848
1762	103.05	70.243	72.21915	0.014236294
1763	103.1	70.52	71.75794	0.014180374
1764	103.15	68	71.35008	0.014705882
1765	103.2	73.802	70.98831	0.013549768
1766	103.25	68.917	70.66657	0.014510208
1767	103.3	66.381	70.37981	0.015064552
1768	103.35	67.986	70.12376	0.014708911
1769	103.4	73.448	69.89483	0.013615075
1770	103.45	64.994	69.68994	0.015386036
1771	103.5	65.313	69.50648	0.015310888
1772	103.55	70.687	69.34223	0.014146873
1773	103.6	71.702	69.19525	0.013946612
1774	103.65	65.968	69.06388	0.015158865
1775	103.7	68.403	68.94671	0.014619242
1776	103.75	67.315	68.84251	0.01485553
1777	103.8	70.797	68.75015	0.014124892
1778	103.85	72.658	68.66872	0.013763109
1779	103.9	65.937	68.5974	0.015165992
1780	103.95	67.584	68.53549	0.014796402
1781	104	65.77	68.48236	0.015204501
1782	104.05	63.631	68.4375	0.01571561
1783	104.1	70.968	68.40043	0.014090858
1784	104.15	66.931	68.37079	0.01494076
1785	104.2	63.777	68.34822	0.015679634
1786	104.25	67.992	68.33245	0.014707613
1787	104.3	65.301	68.32325	0.015313701
1788	104.35	70.311	68.32044	0.014222526
1789	104.4	68.759	68.32386	0.014543551
1790	104.45	67.787	68.33343	0.014752091
1791	104.5	69.776	68.34906	0.014331575
1792	104.55	71.932	68.37075	0.013902019
1793	104.6	70.049	68.39849	0.014275721
1794	104.65	72.825	68.43231	0.013731548
1795	104.7	71.351	68.47231	0.014015221
1796	104.75	67.358	68.51859	0.014846046
1797	104.8	74.11	68.57131	0.013493456
1798	104.85	72.208	68.63066	0.013848881
1799	104.9	67.901	68.69688	0.014727324
1800	104.95	63.59	68.77023	0.015725743
1801	105	63.557	68.85104	0.015733908
1802	105.05	70.9	68.93969	0.014104372
1803	105.1	68.483	69.0366	0.014602164
1804	105.15	68.807	69.14227	0.014533405
1805	105.2	69.357	69.25725	0.014418155
1806	105.25	68.09	69.38218	0.014686444
1807	105.3	70.6	69.51776	0.014164306
1808	105.35	71.344	69.66481	0.014016596
1809	105.4	68.702	69.82425	0.014555617
1810	105.45	66.672	69.99711	0.0149988
1811	105.5	71.587	70.18457	0.013969017
1812	105.55	70.961	70.38795	0.014092248
1813	105.6	73.051	70.60877	0.013689067
1814	105.65	71.896	70.84874	0.01390898
1815	105.7	68.126	71.10984	0.014678684
1816	105.75	71.239	71.39431	0.014037255
1817	105.8	70.183	71.70472	0.014248465
1818	105.85	70.191	72.04403	0.014246841
1819	105.9	70.353	72.41566	0.014214035
1820	105.95	69.785	72.82358	0.014329727
1821	106	74.275	73.27238	0.01346348
1822	106.05	77.661	73.76745	0.012876476
1823	106.1	72.474	74.31509	0.013798052
1824	106.15	78.977	74.92081	0.012661914
1825	106.2	79.465	75.5849	0.012584157
1826	106.25	75.621	76.34072	0.01322384
1827	106.3	79.178	77.18839	0.012629771
1828	106.35	81.486	78.14305	0.012272047
1829	106.4	78.817	79.22314	0.012687618
1830	106.45	82.531	80.45138	0.012116659
1831	106.5	88.419	81.85618	0.011309786
1832	106.55	90.746	83.47415	0.011019769
1833	106.6	94.97	85.35408	0.010529641
1834	106.65	95.043	87.56428	0.010521553
1835	106.7	99.049	90.205	0.010096013
1836	106.75	108.082	93.42922	0.009252234
1837	106.8	117.34	97.47457	0.008522243
1838	106.85	130.204	102.70756	0.007680256
1839	106.9	134.776	109.67657	0.007419719
1840	106.95	147.444	119.16148	0.006782236
1841	107	158.161	132.1976	0.006322671
1842	107.05	179.56	150.04337	0.005569169
1843	107.1	210.708	174.06173	0.004745904
1844	107.15	235.378	205.49703	0.004248485
1845	107.2	271.151	245.14489	0.003687982
1846	107.25	290.488	292.90621	0.003442483
1847	107.3	336.39	347.16143	0.00297274
1848	107.35	359.269	403.84924	0.00278343
1849	107.4	384.58	455.43968	0.002600239
1850	107.45	402.711	491.2915	0.00248317
1851	107.5	407.713	501.23199	0.002452706
1852	107.55	395.404	482.05849	0.002529059
1853	107.6	361.664	439.91816	0.002764997
1854	107.65	337.793	385.73649	0.002960393
1855	107.7	302.813	329.31334	0.003302368
1856	107.75	275.618	276.93875	0.00362821
1857	107.8	236.503	231.77238	0.004228276
1858	107.85	218.909	194.86897	0.004568108
1859	107.9	188.694	165.98732	0.005299586
1860	107.95	164.88	144.14782	0.006065017
1861	108	151.831	128.03947	0.00658627
1862	108.05	134.577	116.316	0.00743069
1863	108.1	125.872	107.7842	0.007944579
1864	108.15	119.868	101.49182	0.00834251
1865	108.2	109.396	96.73827	0.009141102
1866	108.25	99.403	93.03958	0.010060059
1867	108.3	97.368	90.07594	0.010270315
1868	108.35	92.553	87.64092	0.01080462
1869	108.4	86.462	85.60117	0.011565775
1870	108.45	90.916	83.86838	0.010999164
1871	108.5	93.17	82.38154	0.010733069
1872	108.55	83.911	81.09638	0.011917389
1873	108.6	84.116	79.97933	0.011888345
1874	108.65	81.84	79.0041	0.012218964
1875	108.7	78.996	78.14957	0.012658869
1876	108.75	88.031	77.39858	0.011359635
1877	108.8	89.21	76.73701	0.011209506
1878	108.85	82.774	76.15315	0.012081088
1879	108.9	85.028	75.63726	0.011760832
1880	108.95	84.855	75.18117	0.011784809
1881	109	79.846	74.77802	0.012524109
1882	109.05	80.618	74.42203	0.012404178
1883	109.1	78.041	74.1083	0.012813777
1884	109.15	81.625	73.83268	0.012251149
1885	109.2	72.729	73.59169	0.013749673
1886	109.25	74.143	73.38233	0.01348745
1887	109.3	75.032	73.20212	0.013327647
1888	109.35	78.919	73.04894	0.01267122
1889	109.4	75.367	72.92105	0.013268407
1890	109.45	72.13	72.81702	0.013863857
1891	109.5	74.746	72.73568	0.013378642
1892	109.55	76.562	72.67615	0.01306131
1893	109.6	78.754	72.63776	0.012697768
1894	109.65	76.827	72.62011	0.013016257
1895	109.7	74.844	72.62297	0.013361124
1896	109.75	75.595	72.64639	0.013228388
1897	109.8	79.09	72.69061	0.012643823
1898	109.85	77.868	72.7561	0.012842246
1899	109.9	71.381	72.84363	0.01400933
1900	109.95	71.214	72.9542	0.014042183
1901	110	77.475	73.08914	0.012907389
1902	110.05	72.804	73.25015	0.013735509
1903	110.1	78.493	73.43931	0.01273999
1904	110.15	77.616	73.65923	0.012883941
1905	110.2	77.24	73.91307	0.01294666
1906	110.25	75.269	74.20476	0.013285682
1907	110.3	76.774	74.5392	0.013025243
1908	110.35	75.759	74.9226	0.013199752
1909	110.4	71.678	75.36309	0.013951282
1910	110.45	69.221	75.87173	0.014446483
1911	110.5	69.665	76.46415	0.01435441
1912	110.55	79.081	77.16313	0.012645262
1913	110.6	78.431	78.00249	0.012750061
1914	110.65	78.138	79.03225	0.01279787
1915	110.7	81.975	80.32489	0.012198841
1916	110.75	81.501	81.98133	0.012269788
1917	110.8	83.413	84.13477	0.011988539
1918	110.85	82.633	86.94915	0.012101703
1919	110.9	92.054	90.60926	0.010863189
1920	110.95	94.391	95.30003	0.01059423
1921	111	100.361	101.17425	0.00996403
1922	111.05	108.217	108.30866	0.009240692
1923	111.1	123.612	116.63453	0.008089829
1924	111.15	131.409	125.90136	0.007609829
1925	111.2	141.341	135.49564	0.007075088
1926	111.25	153.162	144.37427	0.006529035
1927	111.3	167.436	151.11651	0.005972431
1928	111.35	168.279	154.39209	0.005942512
1929	111.4	162.15	153.72002	0.006167129
1930	111.45	163.481	149.83637	0.006116919
1931	111.5	160.188	144.26801	0.006242665
1932	111.55	149.335	138.61396	0.006696354
1933	111.6	142.809	134.142	0.00700236
1934	111.65	148.617	131.76073	0.006728705
1935	111.7	156.791	132.09714	0.006377917
1936	111.75	155.499	135.59087	0.00643091
1937	111.8	162.257	142.51898	0.006163062
1938	111.85	169.556	152.98219	0.005897756
1939	111.9	176.906	166.85606	0.00565272
1940	111.95	205.758	183.69812	0.004860078
1941	112	210.354	202.58914	0.004753891
1942	112.05	224.85	221.91313	0.004447409
1943	112.1	233.412	239.31555	0.00428427
1944	112.15	246.257	252.12933	0.004060798
1945	112.2	260.542	258.67797	0.003838153
1946	112.25	262.376	259.49764	0.003811324
1947	112.3	268.943	257.23767	0.00371826
1948	112.35	268.208	255.30588	0.00372845
1949	112.4	261.028	256.5437	0.003831007
1950	112.45	271.054	262.63133	0.003689302
1951	112.5	288.57	273.97528	0.003465364
1952	112.55	307.238	289.64891	0.003254806
1953	112.6	324.842	307.22565	0.00307842
1954	112.65	331.318	322.73723	0.003018248
1955	112.7	334.344	331.39494	0.002990931
1956	112.75	341.319	329.48105	0.002929811
1957	112.8	325.219	316.33115	0.003074851
1958	112.85	304.643	294.49491	0.003282531
1959	112.9	280.609	267.93061	0.003563678
1960	112.95	245.123	240.12088	0.004079585
1961	113	216.827	213.3415	0.004611972
1962	113.05	187.009	188.87557	0.005347336
1963	113.1	169.461	167.38385	0.005901063
1964	113.15	156.622	149.15629	0.006384799
1965	113.2	141.863	134.17837	0.007049054
1966	113.25	127.277	122.18859	0.007856879
1967	113.3	113.234	112.77174	0.00883127
1968	113.35	105.21	105.45848	0.0095048
1969	113.4	100.069	99.79935	0.009993105
1970	113.45	90.712	95.40545	0.0110239
1971	113.5	92.977	91.96239	0.010755348
1972	113.55	91.393	89.22779	0.010941757
1973	113.6	87.592	87.02086	0.011416568
1974	113.65	88.183	85.20971	0.011340054
1975	113.7	84.428	83.69934	0.011844412
1976	113.75	85.492	82.42168	0.011697001
1977	113.8	87.309	81.32782	0.011453573
1978	113.85	79.038	80.38228	0.012652142
1979	113.9	79.988	79.55889	0.012501875
1980	113.95	85.6	78.83791	0.011682243
1981	114	78.465	78.20415	0.012744536
1982	114.05	78.51	77.6456	0.012737231
1983	114.1	74.722	77.15262	0.013382939
1984	114.15	73.393	76.71727	0.013625278
1985	114.2	71.959	76.33301	0.013896802
1986	114.25	74.921	75.99434	0.013347393
1987	114.3	73.654	75.69663	0.013576995
1988	114.35	71.238	75.436	0.014037452
1989	114.4	70.706	75.20914	0.014143071
1990	114.45	74.569	75.01326	0.013410398
1991	114.5	72.072	74.84602	0.013875014
1992	114.55	72.892	74.70543	0.013718927
1993	114.6	71.652	74.58986	0.013956345
1994	114.65	75.835	74.49795	0.013186523
1995	114.7	72.385	74.4286	0.013815017
1996	114.75	74.026	74.38095	0.013508767
1997	114.8	76.233	74.35438	0.013117679
1998	114.85	72.489	74.34845	0.013795197
1999	114.9	74.844	74.36291	0.013361124
2000	114.95	76.825	74.39772	0.013016596
2001	115	68.655	74.45303	0.014565582
2002	115.05	71.154	74.52917	0.014054024
2003	115.1	76.428	74.62666	0.01308421
2004	115.15	74.531	74.74625	0.013417236
2005	115.2	75.301	74.88891	0.013280036
2006	115.25	70.188	75.05585	0.01424745
2007	115.3	75.167	75.24855	0.01330371
2008	115.35	79.901	75.4688	0.012515488
2009	115.4	77.924	75.71875	0.012833017
2010	115.45	75.781	76.00092	0.01319592
2011	115.5	76.964	76.31832	0.012993088
2012	115.55	77.99	76.6745	0.012822157
2013	115.6	78.082	77.07366	0.012807049
2014	115.65	74.9	77.5208	0.013351135
2015	115.7	77.19	78.02188	0.012955046
2016	115.75	81.347	78.58414	0.012293016
2017	115.8	83.504	79.21646	0.011975474
2018	115.85	83.005	79.93009	0.012047467
2019	115.9	77.443	80.73958	0.012912723
2020	115.95	81.583	81.66447	0.012257456
2021	116	83.444	82.73181	0.011984085
2022	116.05	84.245	83.9799	0.011870141
2023	116.1	82.179	85.46348	0.012168559
2024	116.15	86.852	87.26053	0.01151384
2025	116.2	89.595	89.48014	0.011161337
2026	116.25	99.006	92.2705	0.010100398
2027	116.3	101.946	95.82487	0.009809115
2028	116.35	106.202	100.38277	0.009416019
2029	116.4	112.047	106.22308	0.008924826
2030	116.45	110.477	113.64604	0.009051658
2031	116.5	125.143	122.94254	0.007990858
2032	116.55	133.515	134.35039	0.007489795
2033	116.6	145.309	147.99807	0.006881886
2034	116.65	160.687	163.83372	0.006223279
2035	116.7	175.065	181.53043	0.005712164
2036	116.75	187.443	200.35605	0.005334955
2037	116.8	209.402	219.02034	0.004775504
2038	116.85	224.082	235.6053	0.004462652
2039	116.9	232.43	247.81884	0.004302371
2040	116.95	233.401	253.75638	0.004284472
2041	117	237.818	252.86379	0.004204896
2042	117.05	238.729	246.32632	0.00418885
2043	117.1	228.187	236.52381	0.004382371
2044	117.15	222.425	226.08134	0.004495897
2045	117.2	213.072	217.18686	0.004693249
2046	117.25	212.164	211.36135	0.004713335
2047	117.3	210.306	209.53597	0.004754976
2048	117.35	216.034	212.09321	0.004628901
2049	117.4	216.909	218.93501	0.004610228
2050	117.45	226.862	229.47771	0.004407966
2051	117.5	237.102	242.5795	0.004217594
2052	117.55	241.853	256.48016	0.004134743
2053	117.6	254.724	268.92239	0.003925818
2054	117.65	264.083	277.67139	0.003786688
2055	117.7	263.209	281.367	0.003799262
2056	117.75	264.851	280.13594	0.003775708
2057	117.8	269.833	275.39999	0.003705996
2058	117.85	268.563	269.03912	0.003723521
2059	117.9	266.451	262.54972	0.003753035
2060	117.95	259.015	256.58696	0.00386078
2061	118	253.119	250.88932	0.003950711
2062	118.05	258.186	244.50841	0.003873177
2063	118.1	254.217	236.30765	0.003933647
2064	118.15	245.93	225.61856	0.004066198
2065	118.2	229.278	212.53164	0.004361517
2066	118.25	212.242	197.80441	0.004711603
2067	118.3	198.993	182.45142	0.005025302
2068	118.35	186.752	167.40488	0.005354695
2069	118.4	172.178	153.35795	0.005807943
2070	118.45	161.385	140.74073	0.006196363
2071	118.5	149.741	129.75753	0.006678198
2072	118.55	132.77	120.44373	0.007531822
2073	118.6	119.766	112.70774	0.008349615
2074	118.65	115.76	106.4189	0.008638563
2075	118.7	110.474	101.37414	0.009051904
2076	118.75	105.054	97.36387	0.009518914
2077	118.8	103.257	94.20313	0.009684573
2078	118.85	95.901	91.71113	0.01042742
2079	118.9	94.158	89.7388	0.010620446
2080	118.95	93.567	88.1664	0.010687529
2081	119	90.602	86.90128	0.011037284
2082	119.05	92.391	85.8741	0.010823565
2083	119.1	89.574	85.03423	0.011163954
2084	119.15	86.516	84.34532	0.011558556
2085	119.2	87.642	83.78147	0.011410055
2086	119.25	89.264	83.32426	0.011202725
2087	119.3	89.32	82.96048	0.011195701
2088	119.35	85.242	82.68064	0.011731306
2089	119.4	83.629	82.47792	0.011957575
2090	119.45	82.179	82.34756	0.012168559
2091	119.5	83.909	82.28641	0.011917673
2092	119.55	83.456	82.29283	0.011982362
2093	119.6	80.124	82.36656	0.012480655
2094	119.65	82.03	82.50885	0.012190662
2095	119.7	82.82	82.72272	0.012074378
2096	119.75	81.001	83.01331	0.012345527
2097	119.8	82.475	83.38852	0.012124886
2098	119.85	86.637	83.85978	0.011542413
2099	119.9	86.322	84.44303	0.011584532
2100	119.95	84.736	85.15983	0.01180136
2101	120	84.749	86.03847	0.011799549
2102	120.05	84.805	87.11484	0.011791758
2103	120.1	85.476	88.43296	0.01169919
2104	120.15	92.455	90.0449	0.010816073
2105	120.2	93.494	92.00996	0.010695874
2106	120.25	93.798	94.39303	0.010661208
2107	120.3	93.059	97.26227	0.010745871
2108	120.35	94.355	100.68587	0.010598272
2109	120.4	101.6	104.72737	0.00984252
2110	120.45	109.527	109.43919	0.009130169
2111	120.5	115.329	114.84774	0.008670846
2112	120.55	124.345	120.93682	0.008042141
2113	120.6	126.343	127.62887	0.007914962
2114	120.65	130.766	134.78326	0.007647248
2115	120.7	139.831	142.23592	0.00715149
2116	120.75	150.709	149.88109	0.006635304
2117	120.8	158.473	157.74366	0.006310223
2118	120.85	168.862	165.97009	0.005921995
2119	120.9	173.984	174.72238	0.005747655
2120	120.95	185.892	184.03001	0.005379468
2121	121	195.325	193.66297	0.005119672
2122	121.05	198.836	203.06693	0.00502927
2123	121.1	210.652	211.41042	0.004747166
2124	121.15	223.602	217.80745	0.004472232
2125	121.2	235.988	221.69522	0.004237504
2126	121.25	225.811	223.17232	0.004428482
2127	121.3	227.363	223.04985	0.004398253
2128	121.35	227.1	222.58236	0.004403347
2129	121.4	231.735	223.08916	0.004315274
2130	121.45	227.022	225.67827	0.004404859
2131	121.5	241.985	231.12548	0.004132488
2132	121.55	240.933	239.84594	0.004150531
2133	121.6	255.515	251.88257	0.003913665
2134	121.65	275.775	266.86752	0.003626145
2135	121.7	294.595	283.96659	0.003394491
2136	121.75	319.635	301.8898	0.003128569
2137	121.8	329.861	319.06996	0.00303158
2138	121.85	347.14	334.0775	0.002880682
2139	121.9	355.1	346.10679	0.002816108
2140	121.95	362.964	355.18396	0.002755094
2141	122	380.343	361.8917	0.002629206
2142	122.05	366.945	366.79666	0.002725204
2143	122.1	373.062	369.92598	0.00268052
2144	122.15	370.806	370.59853	0.002696828
2145	122.2	388.752	367.70821	0.002572334
2146	122.25	378.564	360.35457	0.002641561
2147	122.3	361.086	348.4647	0.002769423
2148	122.35	348.947	332.97262	0.002865765
2149	122.4	330.857	315.4974	0.003022454
2150	122.45	313.587	297.73447	0.003188908
2151	122.5	285.89	281.00292	0.003497849
2152	122.55	271.245	266.04735	0.003686704
2153	122.6	262.869	253.02294	0.003804176
2154	122.65	239.141	241.583	0.004181633
2155	122.7	233.875	231.04695	0.004275788
2156	122.75	218.783	220.65677	0.004570739
2157	122.8	212.887	209.86888	0.004697328
2158	122.85	207.374	198.54429	0.004822205
2159	122.9	181.67	186.93403	0.005504486
2160	122.95	163.949	175.50519	0.006099458
2161	123	169.465	164.74661	0.005900923
2162	123.05	160.22	155.05087	0.006241418
2163	123.1	144.537	146.6795	0.006918644
2164	123.15	139.029	139.78236	0.007192744
2165	123.2	133.723	134.41208	0.007478145
2166	123.25	134.022	130.53724	0.007461462
2167	123.3	133.263	128.10274	0.007503958
2168	123.35	128.126	126.96633	0.007804817
2169	123.4	131.808	126.93025	0.007586793
2170	123.45	129.869	127.73444	0.007700067
2171	123.5	130.369	129.04258	0.007670535
2172	123.55	139.021	130.43886	0.007193158
2173	123.6	148.293	131.45291	0.006743407
2174	123.65	154.212	131.63355	0.00648458
2175	123.7	139.568	130.66184	0.007164966
2176	123.75	147.893	128.44629	0.006761645
2177	123.8	137.772	125.13552	0.007258369
2178	123.85	129.612	121.03996	0.007715335
2179	123.9	127.615	116.51917	0.007836069
2180	123.95	118.917	111.89507	0.008409227
2181	124	114.892	107.41269	0.008703826
2182	124.05	101.412	103.2368	0.009860766
2183	124.1	98.51	99.46488	0.010151254
2184	124.15	95.474	96.14315	0.010474056
2185	124.2	95.709	93.28026	0.010448338
2186	124.25	93.265	90.85829	0.010722136
2187	124.3	86.057	88.84155	0.011620205
2188	124.35	81.653	87.18388	0.012246947
2189	124.4	86.904	85.83476	0.01150695
2190	124.45	86.888	84.74394	0.011509069
2191	124.5	80.63	83.86487	0.012402332
2192	124.55	80.138	83.1567	0.012478475
2193	124.6	81.08	82.58517	0.012333498
2194	124.65	84.333	82.12265	0.011857754
2195	124.7	86.948	81.74753	0.011501127
2196	124.75	81.719	81.44335	0.012237056
2197	124.8	81.125	81.19783	0.012326656
2198	124.85	81.411	81.0019	0.012283352
2199	124.9	83.706	80.84892	0.011946575
2200	124.95	87.848	80.73403	0.011383298
2201	125	91.218	80.65364	0.010962749
2202	125.05	88.668	80.60507	0.011278026
2203	125.1	83.58	80.58633	0.011964585
2204	125.15	84.318	80.59592	0.011859864
2205	125.2	91.115	80.63271	0.010975141
2206	125.25	87.633	80.69593	0.011411226
2207	125.3	83.752	80.78503	0.011940013
2208	125.35	87.725	80.8997	0.011399259
2209	125.4	87.634	81.03986	0.011411096
2210	125.45	86.495	81.20559	0.011561362
2211	125.5	89.065	81.3972	0.011227755
2212	125.55	82.006	81.61514	0.01219423
2213	125.6	85.847	81.86007	0.011648631
2214	125.65	88.191	82.13284	0.011339026
2215	125.7	84.751	82.43446	0.011799271
2216	125.75	83.938	82.76618	0.011913555
2217	125.8	86.536	83.12943	0.011555884
2218	125.85	82.483	83.52591	0.01212371
2219	125.9	88.223	83.95752	0.011334913
2220	125.95	91.735	84.42648	0.010900965
2221	126	85.38	84.93528	0.011712345
2222	126.05	90.471	85.48675	0.011053266
2223	126.1	92.946	86.0841	0.010758935
2224	126.15	86.903	86.73097	0.011507083
2225	126.2	88.041	87.43147	0.011358344
2226	126.25	86.038	88.19025	0.011622771
2227	126.3	93.01	89.0126	0.010751532
2228	126.35	90.108	89.90455	0.011097794
2229	126.4	87.289	90.87301	0.011456197
2230	126.45	89.609	91.92593	0.011159593
2231	126.5	91.949	93.07255	0.010875594
2232	126.55	95.244	94.32379	0.010499349
2233	126.6	97.195	95.69268	0.010288595
2234	126.65	90.885	97.19508	0.011002916
2235	126.7	94.345	98.85072	0.010599396
2236	126.75	96.616	100.68463	0.010350253
2237	126.8	103.512	102.72916	0.009660716
2238	126.85	100.973	105.02668	0.009903638
2239	126.9	98.509	107.63329	0.010151357
2240	126.95	103.108	110.62335	0.009698568
2241	127	107.177	114.09509	0.00933036
2242	127.05	117.926	118.17694	0.008479894
2243	127.1	125.395	123.03423	0.0079748
2244	127.15	129.204	128.87554	0.007739698
2245	127.2	133.932	135.95739	0.007466476
2246	127.25	144.969	144.58623	0.006898026
2247	127.3	161.672	155.11569	0.006185363
2248	127.35	176.826	167.93787	0.005655277
2249	127.4	189.828	183.46714	0.005267927
2250	127.45	205.237	202.11574	0.004872416
2251	127.5	225.661	224.26116	0.004431426
2252	127.55	255.293	250.20574	0.003917068
2253	127.6	291.88	280.12916	0.003426066
2254	127.65	312.489	314.03324	0.003200113
2255	127.7	355.523	351.67649	0.002812758
2256	127.75	390.552	392.49319	0.002560479
2257	127.8	430.832	435.49196	0.00232109
2258	127.85	479.107	479.13914	0.002087216
2259	127.9	526.614	521.26148	0.001898924
2260	127.95	557.07	559.05322	0.001795107
2261	128	575.677	589.31332	0.001737085
2262	128.05	584.63	608.99627	0.001710484
2263	128.1	596.596	615.97718	0.001676176
2264	128.15	596.803	609.70248	0.001675595
2265	128.2	581.505	591.36593	0.001719676
2266	128.25	550.647	563.52109	0.001816045
2267	128.3	524.343	529.37957	0.001907149
2268	128.35	483.144	492.14818	0.002069776
2269	128.4	444.529	454.61401	0.002249572
2270	128.45	415.21	418.99158	0.00240842
2271	128.5	384.848	386.94155	0.002598428
2272	128.55	356.041	359.66216	0.002808665
2273	128.6	334.661	337.99019	0.002988098
2274	128.65	327.803	322.48452	0.003050613
2275	128.7	312.815	313.487	0.003196778
2276	128.75	300.895	311.16338	0.003323418
2277	128.8	316.911	315.52806	0.00315546
2278	128.85	331.843	326.45482	0.003013473
2279	128.9	342.358	343.67423	0.002920919
2280	128.95	359.086	366.75668	0.002784848
2281	129	388.234	395.07858	0.002575766
2282	129.05	411.603	427.76775	0.002429526
2283	129.1	456.505	463.62526	0.002190557
2284	129.15	502.969	501.02898	0.001988194
2285	129.2	528.352	537.84657	0.001892678
2286	129.25	577.402	571.42324	0.001731896
2287	129.3	601.938	598.74369	0.001661301
2288	129.35	633.535	616.84621	0.001578445
2289	129.4	625.861	623.44288	0.001597799
2290	129.45	634.988	617.51654	0.001574833
2291	129.5	602.294	599.59139	0.001660319
2292	129.55	575.017	571.53178	0.001739079
2293	129.6	539.216	535.99786	0.001854544
2294	129.65	499.835	495.83714	0.00200066
2295	129.7	443.498	453.63264	0.002254802
2296	129.75	394.746	411.47608	0.002533275
2297	129.8	364.853	370.92018	0.00274083
2298	129.85	317.473	333.02982	0.003149874
2299	129.9	286.622	298.46721	0.003488916
2300	129.95	262.262	267.57673	0.003812981
2301	130	235.319	240.45779	0.004249551
2302	130.05	220.751	217.02531	0.004529991
2303	130.1	200.391	197.06098	0.004990244
2304	130.15	187.515	180.25753	0.005332907
2305	130.2	175.863	166.25681	0.005686244
2306	130.25	166.417	154.68178	0.006009001
2307	130.3	158.021	145.16171	0.006328273
2308	130.35	143.354	137.35057	0.006975738
2309	130.4	137.135	130.93882	0.007292084
2310	130.45	137.08	125.65953	0.00729501
2311	130.5	130.108	121.28966	0.007685922
2312	130.55	119.521	117.64821	0.008366731
2313	130.6	114.446	114.59201	0.008737745
2314	130.65	112.163	112.01061	0.008915596
2315	130.7	108.734	109.82083	0.009196755
2316	130.75	104.812	107.96166	0.009540892
2317	130.8	103.888	106.36551	0.009625751
2318	130.85	97.79	105.04542	0.010225994
2319	130.9	102.078	103.96999	0.00979643
2320	130.95	103.998	103.12302	0.00961557
2321	131	94.226	102.50005	0.010612782
2322	131.05	93.438	102.1012	0.010702284
2323	131.1	97.405	101.92943	0.010266413
2324	131.15	90.494	101.98898	0.011050456
2325	131.2	94.3	102.28385	0.010604454
2326	131.25	98.046	102.81619	0.010199294
2327	131.3	97.666	103.58459	0.010238978
2328	131.35	100.443	104.58233	0.009955895
2329	131.4	102.258	105.79528	0.009779186
2330	131.45	102.204	107.19957	0.009784353
2331	131.5	106.769	108.75871	0.009366014
2332	131.55	104.389	110.42036	0.009579553
2333	131.6	110.799	112.1134	0.009025352
2334	131.65	119.093	113.74699	0.008396799
2335	131.7	113.997	115.21439	0.008772161
2336	131.75	119.885	116.40414	0.008341327
2337	131.8	122.95	117.21906	0.008133388
2338	131.85	123.912	117.59822	0.008070243
2339	131.9	122.851	117.53338	0.008139942
2340	131.95	115.8	117.07214	0.008635579
2341	132	115.406	116.30699	0.008665061
2342	132.05	113.758	115.35624	0.008790591
2343	132.1	107.788	114.34523	0.009277471
2344	132.15	102.569	113.39327	0.009749534
2345	132.2	108.925	112.60755	0.009180629
2346	132.25	108.568	112.08263	0.009210817
2347	132.3	107.014	111.90291	0.009344572
2348	132.35	108.973	112.14625	0.009176585
2349	132.4	112.724	112.88727	0.008871225
2350	132.45	106.901	114.20008	0.009354449
2351	132.5	103.778	116.15992	0.009635954
2352	132.55	108.094	118.84384	0.009251207
2353	132.6	109.968	122.33025	0.009093554
2354	132.65	113.37	126.69734	0.008820676
2355	132.7	116.085	132.02041	0.008614377
2356	132.75	123.146	138.36801	0.008120442
2357	132.8	126.861	145.79701	0.007882643
2358	132.85	139.281	154.34646	0.00717973
2359	132.9	152.629	164.03022	0.006551835
2360	132.95	161.106	174.8279	0.006207093
2361	133	169.066	186.67363	0.00591485
2362	133.05	173.418	199.44239	0.005766414
2363	133.1	188.389	212.9343	0.005308166
2364	133.15	208.585	226.85981	0.004794209
2365	133.2	221.897	240.83222	0.004506595
2366	133.25	241.273	254.37823	0.004144683
2367	133.3	252.576	266.97751	0.003959204
2368	133.35	268.662	278.13429	0.003722149
2369	133.4	279.056	287.4662	0.00358351
2370	133.45	287.64	294.77778	0.003476568
2371	133.5	294.8	300.08574	0.00339213
2372	133.55	287.41	303.58478	0.00347935
2373	133.6	285.24	305.57482	0.00350582
2374	133.65	294.641	306.38684	0.003393961
2375	133.7	290.461	306.33699	0.003442803
2376	133.75	292.102	305.71473	0.003423462
2377	133.8	291.496	304.79687	0.003430579
2378	133.85	289.143	303.84582	0.003458496
2379	133.9	291.245	303.09606	0.003433535
2380	133.95	295.858	302.72077	0.00338
2381	134	296.902	302.7906	0.003368115
2382	134.05	307.069	303.24368	0.003256597
2383	134.1	309.72	303.87436	0.003228723
2384	134.15	315.471	304.35226	0.003169863
2385	134.2	322.374	304.27672	0.003101987
2386	134.25	330.11	303.26131	0.003029293
2387	134.3	326.301	301.0279	0.003064655
2388	134.35	326.109	297.47856	0.003066459
2389	134.4	324.384	292.71811	0.003082766
2390	134.45	316.694	287.02138	0.003157622
2391	134.5	303.573	280.76304	0.003294101
2392	134.55	292.762	274.33917	0.003415744
2393	134.6	273.762	268.10484	0.003652808
2394	134.65	252.708	262.3386	0.003957136
2395	134.7	246.79	257.23664	0.004052028
2396	134.75	240.866	252.92979	0.004151686
2397	134.8	234.919	249.51369	0.004256786
2398	134.85	224.813	247.0803	0.004448141
2399	134.9	223.685	245.73849	0.004470572
2400	134.95	220.82	245.61692	0.004528575
2401	135	215.551	246.84966	0.004639273
2402	135.05	228.382	249.55155	0.004378629
2403	135.1	228.187	253.79125	0.004382371
2404	135.15	227.653	259.56765	0.00439265
2405	135.2	245.799	266.79126	0.004068365
2406	135.25	248.325	275.27069	0.004026981
2407	135.3	262.304	284.70494	0.00381237
2408	135.35	265.638	294.6849	0.003764522
2409	135.4	287.175	304.7104	0.003482197
2410	135.45	305.988	314.22799	0.003268102
2411	135.5	324.365	322.6884	0.003082947
2412	135.55	334.808	329.61147	0.002986786
2413	135.6	334.402	334.6357	0.002990413
2414	135.65	338.087	337.53352	0.002957819
2415	135.7	353.714	338.19085	0.002827143
2416	135.75	344.578	336.56508	0.002902101
2417	135.8	347.306	332.64758	0.002879305
2418	135.85	332.674	326.45467	0.003005946
2419	135.9	334.505	318.04911	0.002989492
2420	135.95	317.318	307.57594	0.003151413
2421	136	319.25	295.28824	0.003132341
2422	136.05	299.294	281.54496	0.003341196
2423	136.1	281.072	266.77953	0.003557807
2424	136.15	256.679	251.45205	0.003895917
2425	136.2	235.793	236.00176	0.004241008
2426	136.25	224.468	220.812	0.004454978
2427	136.3	210.956	206.19148	0.004740325
2428	136.35	201.275	192.36767	0.004968327
2429	136.4	180.995	179.49941	0.005525015
2430	136.45	167.991	167.68164	0.0059527
2431	136.5	155.528	156.954	0.00642971
2432	136.55	141.47	147.31689	0.007068636
2433	136.6	129.789	138.74008	0.007704813
2434	136.65	128.878	131.17066	0.007759276
2435	136.7	124.296	124.54141	0.008045311
2436	136.75	111.946	118.77199	0.008932878
2437	136.8	104.332	113.77785	0.009584787
2438	136.85	106.146	109.47336	0.009420986
2439	136.9	106.781	105.77463	0.009364962
2440	136.95	97.604	102.60192	0.010245482
2441	137	96.872	99.88136	0.0103229
2442	137.05	93.599	97.54601	0.010683875
2443	137.1	95.387	95.53648	0.010483609
2444	137.15	96.214	93.80103	0.010393498
2445	137.2	92.48	92.29532	0.010813149
2446	137.25	88.045	90.98193	0.011357828
2447	137.3	92.626	89.82969	0.010796105
2448	137.35	87.871	88.81297	0.011380319
2449	137.4	84.95	87.9109	0.01177163
2450	137.45	83.602	87.10661	0.011961436
2451	137.5	86.207	86.38656	0.011599986
2452	137.55	88.359	85.73994	0.011317466
2453	137.6	78.961	85.14992	0.01266448
2454	137.65	80.369	84.62407	0.012442608
2455	137.7	84.17	84.15248	0.011880718
2456	137.75	80.01	83.72932	0.012498438
2457	137.8	79.595	83.3509	0.012563603
2458	137.85	80.724	83.01457	0.01238789
2459	137.9	78.965	82.71838	0.012663838
2460	137.95	81.66	82.46093	0.012245898
2461	138	82.828	82.24142	0.012073212
2462	138.05	77.444	82.05962	0.012912556
2463	138.1	78.665	81.91592	0.012712134
2464	138.15	80.692	81.81135	0.012392802
2465	138.2	83.573	81.74774	0.011965587
2466	138.25	81.786	81.72776	0.012227032
2467	138.3	79.316	81.75509	0.012607797
2468	138.35	77.931	81.83459	0.012831864
2469	138.4	81.086	81.97081	0.012332585
2470	138.45	78.827	82.16214	0.012686009
2471	138.5	82.538	82.43931	0.012115632
2472	138.55	77.87	82.80484	0.012841916
2473	138.6	80.669	83.26995	0.012396336
2474	138.65	79.78	83.84948	0.01253447
2475	138.7	76.718	84.56031	0.013034751
2476	138.75	78.846	85.42107	0.012682952
2477	138.8	79.94	86.45188	0.012509382
2478	138.85	84.717	87.6734	0.011804006
2479	138.9	78.719	89.10793	0.012703413
2480	138.95	84.569	90.77727	0.011824664
2481	139	90.406	92.70152	0.011061213
2482	139.05	82.002	94.89888	0.012194825
2483	139.1	83.58	97.38438	0.011964585
2484	139.15	89.351	100.16848	0.011191817
2485	139.2	89.991	103.25576	0.011112222
2486	139.25	94.743	106.64341	0.010554869
2487	139.3	100.154	110.3196	0.009984624
2488	139.35	98.311	114.26168	0.010171802
2489	139.4	108.652	118.4341	0.009203696
2490	139.45	112.951	122.78605	0.008853397
2491	139.5	118.624	127.24879	0.008429997
2492	139.55	125.353	131.73318	0.007977472
2493	139.6	140.114	136.12772	0.007137046
2494	139.65	151.282	140.29865	0.006610172
2495	139.7	159.398	144.09326	0.006273604
2496	139.75	173.802	147.34821	0.005753674
2497	139.8	171.308	149.90331	0.005837439
2498	139.85	177.106	151.61965	0.005646336
2499	139.9	183.039	152.3986	0.005463317
2500	139.95	177.363	152.19669	0.005638155
2501	140	172.676	151.03209	0.005791193
2502	140.05	167.173	148.98073	0.005981827
2503	140.1	152.732	146.1638	0.006547416
2504	140.15	145.87	142.73043	0.006855419
2505	140.2	135.766	138.84025	0.007365614
2506	140.25	125.765	134.64892	0.007951338
2507	140.3	119.841	130.29835	0.00834439
2508	140.35	115.757	125.91137	0.008638786
2509	140.4	111.061	121.58993	0.009004061
2510	140.45	104.821	117.41569	0.009540073
2511	140.5	96.387	113.45188	0.010374843
2512	140.55	95.874	109.74562	0.010430357
2513	140.6	91.01	106.33027	0.010987804
2514	140.65	93.138	103.22771	0.010736756
2515	140.7	94.661	100.45037	0.010564013
2516	140.75	85.349	98.00304	0.011716599
2517	140.8	87.284	95.88455	0.011456853
2518	140.85	89.347	94.08938	0.011192318
2519	140.9	83.45	92.60901	0.011983223
2520	140.95	86.702	91.43327	0.011533759
2521	141	84.531	90.55145	0.01182998
2522	141.05	83.249	89.95327	0.012012156
2523	141.1	75.571	89.62964	0.013232589
2524	141.15	86.957	89.57318	0.011499937
2525	141.2	87.589	89.77859	0.011416959
2526	141.25	86.09	90.24274	0.011615751
2527	141.3	89.108	90.96454	0.011222337
2528	141.35	85.689	91.94473	0.011670109
2529	141.4	84.617	93.18533	0.011817956
2530	141.45	89.68	94.68917	0.011150758
2531	141.5	90.503	96.45906	0.011049357
2532	141.55	94.147	98.49712	0.010621687
2533	141.6	98.77	100.8038	0.010124532
2534	141.65	99.745	103.37699	0.010025565
2535	141.7	102.103	106.21094	0.009794032
2536	141.75	103.398	109.29515	0.009671367
2537	141.8	104.756	112.61304	0.009545993
2538	141.85	105.251	116.14051	0.009501097
2539	141.9	114.956	119.84441	0.00869898
2540	141.95	115.723	123.68089	0.008641325
2541	142	123.436	127.59407	0.008101364
2542	142.05	131.707	131.51529	0.007592611
2543	142.1	138.985	135.3636	0.007195021
2544	142.15	144.596	139.04828	0.006915821
2545	142.2	145.604	142.47361	0.006867943
2546	142.25	156.524	145.54622	0.006388797
2547	142.3	163.05	148.1839	0.006133088
2548	142.35	166.949	150.32428	0.005989853
2549	142.4	165.71	151.93134	0.006034639
2550	142.45	173.422	152.99769	0.005766281
2551	142.5	176.802	153.54224	0.005656045
2552	142.55	175.06	153.60362	0.005712327
2553	142.6	171.711	153.23127	0.005823739
2554	142.65	166.614	152.47613	0.006001897
2555	142.7	168.946	151.38293	0.005919051
2556	142.75	168.421	149.98529	0.005937502
2557	142.8	159.198	148.3042	0.006281486
2558	142.85	159.217	146.34978	0.006280736
2559	142.9	159.683	144.12572	0.006262407
2560	142.95	151.746	141.63523	0.00658996
2561	143	153.166	138.88689	0.006528864
2562	143.05	147.442	135.89913	0.006782328
2563	143.1	141.304	132.70218	0.00707694
2564	143.15	136.462	129.3374	0.007328047
2565	143.2	134.062	125.85431	0.007459235
2566	143.25	125.487	122.30659	0.007968953
2567	143.3	126.711	118.74778	0.007891975
2568	143.35	124.063	115.22777	0.008060421
2569	143.4	110.562	111.79028	0.009044699
2570	143.45	107.069	108.47157	0.009339772
2571	143.5	103.252	105.30002	0.009685042
2572	143.55	96.771	102.29654	0.010333674
2573	143.6	93.486	99.47524	0.010696789
2574	143.65	91.011	96.84444	0.010987683
2575	143.7	91.782	94.40757	0.010895383
2576	143.75	94.837	92.16413	0.010544408
2577	143.8	91.15	90.11043	0.010970927
2578	143.85	90.736	88.24028	0.011020984
2579	143.9	87.256	86.54557	0.01146053
2580	143.95	88.921	85.01679	0.011245937
2581	144	85.36	83.64338	0.011715089
2582	144.05	88.47	82.41415	0.011303267
2583	144.1	86.937	81.31755	0.011502582
2584	144.15	83.29	80.34198	0.012006243
2585	144.2	85.099	79.47599	0.011751019
2586	144.25	82.486	78.70849	0.012123269
2587	144.3	88.737	78.02891	0.011269256
2588	144.35	89.281	77.42731	0.011200591
2589	144.4	87.457	76.89447	0.011434191
2590	144.45	80.918	76.42194	0.01235819
2591	144.5	82.303	76.00209	0.012150225
2592	144.55	88.747	75.62806	0.011267987
2593	144.6	89.328	75.2938	0.011194698
2594	144.65	85.457	74.99397	0.011701792
2595	144.7	87.902	74.72394	0.011376305
2596	144.75	84.385	74.47972	0.011850447
2597	144.8	81.086	74.25787	0.012332585
2598	144.85	85.496	74.05547	0.011696454
2599	144.9	87.63	73.87003	0.011411617
2600	144.95	88.191	73.69947	0.011339026
2601	145	90.583	73.54201	0.011039599



_refine_ls_goodness_of_fit_all
1.65
_journal_year
2009
_journal_page_last
299
_symmetry_space_group_name_H-M
'R 3 c'
_pd_char_colour
white
_cell_angle_beta
90
_pd_spec_mount_mode
reflection
_cell_angle_alpha
90
_diffrn_radiation_monochromator
'Ge [115]'
_chemical_formula_sum
'K0.30 Na0.70 Nb1 O3'
_chemical_formula_structural
'K Na (Nb O3)'
_journal_page_first
291
_chemical_formula_weight
168.73
_pd_proc_info_excluded_regions
'145-160\% 2\q'
_pd_meas_2theta_range_max
160
_diffrn_measurement_device_type
D2B
_symmetry_cell_setting
trigonal
_diffrn_ambient_temperature
120
_journal_coeditor_code
WF5039
_pd_meas_2theta_range_inc
0.05
_pd_spec_size_axial
20
_journal_name_full
'Acta Crystallographica, Section B'
_journal_volume
65
_cell_volume
375.056(10)
_journal_issue
3
_pd_spec_mounting
'Vanadium can packed with powder'
_pd_spec_shape
cylinder
_pd_proc_ls_prof_R_factor
0.055
_diffrn_radiation_wavelength
1.60
_pd_spec_size_equat
50
_pd_block_diffractogram_id
KNN30at120K
_pd_spec_size_thick
20
_pd_meas_scan_method
step
_diffrn_radiation_type
Neutron
_journal_paper_category
FA
_journal_date_accepted
2009-03-25
_pd_proc_ls_prof_wR_factor
0.075
_cell_angle_gamma
120
_refine_ls_number_parameters
24
_computing_structure_refinement
'TOPAS Academic'
_cell_formula_units_Z
6
_cell_length_a
5.59326(6)
_cell_length_b
5.59326(6)
_pd_meas_number_of_points
2601
_cell_length_c
13.8432(2)
_chemical_name_systematic
'Sodium Potassium Niobate'
_pd_proc_ls_prof_wR_expected
0.027
_journal_date_recd_electronic
2008-12-13
_pd_meas_2theta_range_min
0.10
loop_
_symmetry_equiv_pos_as_xyz

;-x+y, -x, z
;

;-x+y, y, z+1/2
;

;-x+y+1/3, -x-1/3, z-1/3
;

;-x+y+1/3, y-1/3, z+1/6
;

;-x+y-1/3, -x+1/3, z+1/3
;

;-x+y-1/3, y+1/3, z-1/6
;

;-y, -x, z+1/2
;

;-y, x-y, z
;

;-y+1/3, -x-1/3, z+1/6
;

;-y+1/3, x-y-1/3, z-1/3
;

;-y-1/3, -x+1/3, z-1/6
;

;-y-1/3, x-y+1/3, z+1/3
;

;x, y, z
;

;x, x-y, z+1/2
;

;x+1/3, y-1/3, z-1/3
;

;x+1/3, x-y-1/3, z+1/6
;

;x-1/3, y+1/3, z+1/3
;

;x-1/3, x-y+1/3, z-1/6
;

loop_
_atom_type_symbol
Na1+
K1+
Nb5+
O2-

loop_
_atom_site_type_symbol
_atom_site_label
_atom_site_fract_x
_atom_site_fract_y
_atom_site_fract_z
_atom_site_occupancy
Na+1 Na1 0 0 0.2664(3) 0.7
K+1 K1 0 0 0.2664(3) 0.3
Nb+5 Nb1 0 0 0.01568(12) 1
O-2 O1 0.1338(2) 0.3363(4) 0.08333 1



# powder data simulated using PLATON:

data_KNN30at120K_simulated_1.60

_publcif_pd_cifplot 'simulated 2021-03-25'

