data_profile	
	
_pd_block_id      FormA	
	
	
loop_                    	
      _pd_meas_2theta_corrected	
      _pd_meas_intensity_total               	
      _pd_calc_intensity_total
4.20655	17981	17890.4
4.21675	18163	17862.1
4.22686	17970	17834
4.23697	17689	17805.9
4.24708	18037	17777.8
4.25729	17845	17749.4
4.2674	17907	17721.3
4.27751	17680	17693.2
4.28762	17798	17665.1
4.29773	17439	17637
4.30793	17506	17608.6
4.31804	17771	17580.5
4.32815	17399	17552.4
4.33836	17273	17524
4.34847	17591	17496
4.35858	17260	17467.9
4.36869	17255	17439.8
4.37879	17215	17407.6
4.389	17488	17374.1
4.39911	17025	17340.9
4.40922	17236	17307.7
4.41943	16952	17274.2
4.42954	17025	17241
4.43965	17008	17207.8
4.44976	17305	17174.6
4.45986	17119	17141.4
4.47007	17132	17107.9
4.48018	17007	17074.7
4.49029	17018	17041.5
4.5005	16920	17008
4.51061	16819	16974.8
4.52072	16714	16941.6
4.53082	16841	16908.4
4.54093	16892	16875.2
4.55114	16653	16841.7
4.56125	16513	16808.5
4.57136	16785	16775.3
4.58157	16480	16741.8
4.59168	16670	16708.6
4.60179	16490	16675.4
4.61189	16598	16642.2
4.622	16337	16609
4.63221	16697	16575.5
4.64232	16410	16542.3
4.65243	16437	16509.1
4.66264	16496	16475.6
4.67275	16333	16442.4
4.68286	16262	16409.2
4.69296	16346	16376
4.70307	16191	16342.8
4.71328	16153	16309.3
4.72339	16488	16276.1
4.7335	16225	16242.9
4.74361	16080	16209.7
4.75382	16294	16176.2
4.76393	16144	16143
4.77403	15980	16109.8
4.78414	16039	16076.6
4.79435	15928	16043.1
4.80446	16094	16009.9
4.81457	15945	15976.7
4.82468	15746	15943.5
4.83489	16028	15910
4.84499	15716	15876.8
4.8551	15543	15843.6
4.86521	15882	15810.4
4.87542	15755	15776.9
4.88553	15906	15743.7
4.89564	15673	15710.5
4.90575	15716	15677.3
4.91596	15662	15643.8
4.92606	15794	15610.6
4.93617	15828	15577.4
4.94628	15529	15544.2
4.95649	15420	15518.3
4.9666	15764	15495.8
4.97671	15437	15473.4
4.98682	15464	15451
4.99702	15526	15428.3
5.00713	15449	15405.8
5.01724	15329	15383.4
5.02735	15516	15361
5.03756	15578	15338.3
5.04767	15393	15315.9
5.05778	15217	15293.4
5.06789	15111	15271
5.07809	15245	15248.3
5.0882	15202	15225.9
5.09831	15385	15203.5
5.10842	15132	15181
5.11863	15317	15158.4
5.12874	15223	15135.9
5.13885	14954	15113.5
5.14896	15100	15091
5.15916	15035	15068.4
5.16927	15182	15045.9
5.17938	15170	15023.5
5.18949	15082	15001.1
5.1997	15045	14978.4
5.20981	15002	14956
5.21992	15197	14933.5
5.23003	14719	14911.1
5.24023	15007	14888.4
5.25034	14780	14866
5.26045	14763	14843.6
5.27056	14815	14821.1
5.28077	14864	14798.5
5.29088	14805	14776
5.30099	14857	14753.6
5.3111	14791	14731.2
5.3213	14437	14708.5
5.33141	14710	14686.1
5.34152	14411	14663.6
5.35163	14535	14641.2
5.36184	14757	14618.6
5.37195	14818	14596.1
5.38206	14579	14573.7
5.39216	14492	14551.3
5.40237	14776	14528.6
5.41248	14607	14506.2
5.42259	14364	14483.7
5.4327	14544	14461.3
5.44291	14595	14438.7
5.45302	14278	14416.2
5.46313	14361	14393.8
5.47323	14289	14371.4
5.48344	14397	14348.7
5.49355	14260	14326.3
5.50366	14356	14303.8
5.51377	14206	14281.4
5.52398	14236	14258.8
5.53409	14348	14235.8
5.5442	14288	14212.5
5.5543	14077	14189.1
5.56441	14157	14165.8
5.57462	14152	14142.2
5.58473	14110	14118.9
5.59484	14073	14095.5
5.60505	14226	14072
5.61516	13932	14048.7
5.62527	13747	14025.3
5.63537	13898	14002
5.64548	13996	13978.6
5.65569	13902	13955.1
5.6658	13863	13931.8
5.67591	13830	13908.4
5.68612	13840	13884.9
5.69623	13877	13861.5
5.70634	13779	13838.2
5.71644	13752	13814.9
5.72655	13654	13791.5
5.73676	13809	13768
5.74687	13584	13744.7
5.75698	13827	13721.3
5.76719	13764	13697.8
5.7773	13741	13674.4
5.78741	13567	13651.1
5.79751	13669	13627.8
5.80762	13715	13604.5
5.81783	13747	13580.9
5.82794	13562	13557.6
5.83805	13656	13534.3
5.84826	13494	13510.7
5.85837	13519	13487.4
5.86847	13452	13464.1
5.87858	13405	13440.8
5.88869	13581	13417.4
5.8989	13565	13393.9
5.90901	13252	13370.6
5.91912	13317	13347.3
5.92933	13267	13323.7
5.93944	13385	13300.4
5.94955	13265	13277.1
5.95965	13174	13253.8
5.96976	13196	13230.5
5.97997	13105	13206.9
5.99008	13260	13183.6
6.00019	13034	13160.3
6.0103	13077	13137
6.02051	13219	13113.4
6.03062	13180	13090.1
6.04072	13239	13066.8
6.05083	13029	13043.5
6.06104	13198	13020
6.07115	13043	12996.7
6.08126	13092	12973.4
6.09137	12996	12950.1
6.10158	12825	12926.6
6.11169	13221	12906.5
6.12179	12838	12889.5
6.1319	12653	12872.6
6.14211	12877	12855.5
6.15222	12716	12838.5
6.16233	12725	12821.6
6.17244	12929	12804.7
6.18265	12993	12787.6
6.19276	12805	12770.7
6.20286	12742	12753.7
6.21297	12958	12736.8
6.22318	12709	12719.7
6.23329	12686	12702.8
6.2434	12680	12685.9
6.25351	12629	12669
6.26372	12589	12651.9
6.27383	12556	12635
6.28393	12543	12618.1
6.29404	12508	12601.2
6.30425	12626	12584.1
6.31436	12498	12567.2
6.32447	12419	12550.3
6.33458	12373	12533.4
6.34479	12380	12516.4
6.3549	12644	12499.5
6.365	12541	12482.6
6.37511	12584	12465.7
6.38532	12322	12448.7
6.39543	12427	12431.8
6.40554	12372	12414.9
6.41565	12345	12398.1
6.42586	12368	12381
6.43597	12145	12364.2
6.44607	12224	12347.3
6.45618	12364	12330.5
6.46639	12549	12313.5
6.4765	12173	12296.7
6.48661	12170	12279.8
6.49672	12192	12263
6.50693	12113	12246
6.51704	12240	12229.2
6.52714	12194	12212.4
6.53725	12149	12195.6
6.54746	12189	12178.7
6.55757	12123	12161.9
6.56768	12191	12145.2
6.57779	12059	12128.4
6.588	12019	12111.5
6.59811	12146	12094.7
6.60822	11982	12078
6.61832	12206	12061.3
6.62853	11895	12044.4
6.63864	11859	12027.7
6.64875	11874	12011.1
6.65886	12149	11994.4
6.66907	12115	11977.6
6.67918	11987	11960.9
6.68929	11869	11942.6
6.69939	11956	11921.7
6.7096	11783	11900.6
6.71971	11804	11879.7
6.72982	11964	11858.8
6.73993	11821	11838
6.75014	11858	11816.9
6.76025	11876	11796.1
6.77036	11880	11775.3
6.78047	11807	11754.6
6.79067	11635	11733.6
6.80078	11771	11712.9
6.81089	11780	11692.3
6.821	11766	11671.6
6.83111	11825	11651
6.84132	11677	11630.3
6.85143	11524	11609.7
6.86154	11488	11589.2
6.87174	11623	11568.6
6.88185	11489	11548.2
6.89196	11541	11527.8
6.90207	11798	11507.5
6.91218	11635	11487.2
6.92239	11618	11466.7
6.9325	11517	11446.5
6.94261	11722	11426.3
6.95281	11501	11406
6.96292	11184	11386
6.97303	11226	11365.9
6.98314	11533	11346
6.99325	11235	11326
7.00346	11244	11306
7.01357	11204	11286.1
7.02368	11283	11266.4
7.03388	11308	11246.4
7.04399	11131	11226.8
7.0541	11112	11207.2
7.06421	11345	11187.8
7.07432	11066	11168.4
7.08453	11079	11148.9
7.09464	11182	11129.8
7.10475	11153	11110.8
7.11496	11238	11091.8
7.12506	11236	11073.3
7.13517	11043	11054.9
7.14528	10989	11036.9
7.15539	11016	11019.1
7.1656	10999	11001.5
7.17571	11043	10984.4
7.18582	10944	10967.7
7.19603	11119	10951.2
7.20613	10864	10935.2
7.21624	10875	10919.6
7.22635	10751	10904.2
7.23646	10857	10889
7.24667	10975	10873.7
7.25678	10745	10858.5
7.26689	10986	10844.9
7.277	11018	10835.4
7.28721	10741	10825.1
7.29731	10703	10814
7.30742	10902	10801.9
7.31753	10859	10788.6
7.32774	10440	10773.8
7.33785	10863	10757.9
7.34796	10714	10740.7
7.35807	10745	10722.4
7.36828	10633	10703
7.37839	10834	10683
7.38849	10662	10662.4
7.3986	10605	10641.4
7.40881	10407	10620.1
7.41892	10554	10599
7.42903	10571	10578.1
7.43914	10490	10557.3
7.44935	10442	10536.7
7.45946	10635	10516.6
7.46957	10406	10496.9
7.47967	10554	10477.6
7.48988	10383	10458.4
7.49999	10448	10439.8
7.5101	10480	10421.4
7.52021	10364	10403.4
7.53042	10397	10385.5
7.54053	10331	10367.9
7.55064	10298	10350.5
7.56075	10412	10333.4
7.57095	10465	10316.1
7.58106	10179	10299.2
7.59117	10188	10282.4
7.60128	10101	10265.7
7.61149	10177	10248.9
7.6216	10206	10232.3
7.63171	10159	10215.8
7.64182	10272	10199.4
7.65202	10221	10182.8
7.66213	10185	10166.5
7.67224	10342	10150.2
7.68235	10095	10133.9
7.69256	10002	10117.6
7.70267	10238	10101.4
7.71278	10012	10085.3
7.72289	10113	10069.3
7.7331	10125	10053.1
7.7432	9974	10037.1
7.75331	9961	10021.2
7.76342	9922	10005.8
7.77363	9923	9989.8
7.78374	9896	9974
7.79385	9865	9958.5
7.80396	10058	9942.8
7.81417	9969	9926.9
7.82428	9859	9911.3
7.83438	10183	9895.7
7.84449	9852	9880.3
7.8547	9869	9865.9
7.86481	9919	9851.7
7.87492	9875	9837.6
7.88503	9874	9823.4
7.89524	9814	9809.1
7.90535	9747	9795
7.91546	10005	9781
7.92557	9805	9766.9
7.93577	9708	9752.7
7.94588	9628	9738.7
7.95599	9634	9724.7
7.9661	9613	9710.7
7.97631	9528	9696.6
7.98642	9727	9682.7
7.99653	9815	9668.7
8.00664	9692	9654.8
8.01684	9530	9640.8
8.02695	9591	9626.9
8.03706	9611	9613
8.04717	9708	9599.1
8.05738	9471	9585.1
8.06749	9801	9571.3
8.0776	9596	9557.4
8.08771	9686	9543.6
8.09782	9489	9529.8
8.10803	9469	9515.8
8.11813	9504	9502
8.12824	9416	9488.2
8.13845	9454	9474.3
8.14856	9373	9460.5
8.15867	9267	9446.7
8.16878	9418	9433
8.17889	9393	9419.2
8.1891	9403	9405.3
8.19921	9448	9391.5
8.20932	9520	9377.8
8.21952	9422	9366.3
8.22963	9655	9352.6
8.23974	9270	9338.9
8.24985	9232	9325.2
8.26006	9440	9312.5
8.27017	9295	9298.8
8.28028	9323	9285.1
8.29039	9203	9271.4
8.3005	9188	9257.7
8.3107	9188	9243.9
8.32081	9200	9230.2
8.33092	9212	9216.5
8.34103	9243	9202.8
8.35124	9239	9189
8.36135	9244	9175.4
8.37146	9216	9161.7
8.38167	9215	9147.9
8.39178	9065	9134.2
8.40189	8973	9120.5
8.41199	9257	9106.9
8.4222	9023	9093.2
8.43231	8919	9081
8.44242	9106	9068.8
8.45253	9128	9056.6
8.46264	9179	9044.3
8.47285	9032	9032
8.48296	9062	9019.8
8.49307	9110	9007.6
8.50318	8915	8995.4
8.51338	8842	8983
8.52349	9000	8971.2
8.5336	9137	8959
8.54371	8865	8946.8
8.55392	8859	8934.6
8.56403	9087	8922.4
8.57414	8975	8910.2
8.58425	8923	8898
8.59446	8892	8885.7
8.60456	9057	8873.5
8.61467	8787	8861.3
8.62478	8702	8849.1
8.63499	8810	8836.8
8.6451	8744	8824.6
8.65521	8834	8812.4
8.66532	8714	8800.3
8.67553	8725	8788
8.68564	8756	8775.8
8.69575	8796	8763.6
8.70585	8869	8751.4
8.71606	8802	8739.1
8.72617	8524	8726.9
8.73628	8787	8714.8
8.74639	8634	8702.6
8.7566	8564	8690.3
8.76671	8699	8678.1
8.77682	8546	8665.9
8.78693	8634	8653.8
8.79714	8581	8641.5
8.80725	8557	8629.3
8.81735	8560	8617.1
8.82746	8401	8605
8.83767	8655	8592.7
8.84778	8573	8580.5
8.85789	8527	8568.4
8.868	8677	8556.2
8.87821	8503	8543.9
8.88832	8693	8531.8
8.89843	8474	8519.6
8.90854	8556	8507.4
8.91874	8593	8495.2
8.92885	8377	8483
8.93896	8486	8470.8
8.94907	8417	8458.7
8.95928	8338	8446.4
8.96939	8350	8434.3
8.9795	8330	8422.1
8.98961	8495	8409.9
8.99982	8433	8397.7
9.00993	8500	8387.7
9.02003	8480	8377.8
9.03014	8224	8367.9
9.04035	8373	8357.9
9.05046	8418	8348
9.06057	8374	8338.1
9.07068	8332	8328.1
9.08089	8243	8318.1
9.091	8263	8308.2
9.10111	8231	8298.3
9.11122	8219	8288.4
9.12142	8130	8278.4
9.13153	8225	8268.5
9.14164	8242	8258.5
9.15175	8356	8248.6
9.16196	8315	8238.6
9.17207	8388	8228.7
9.18218	8347	8218.8
9.19229	8201	8208.9
9.2025	8131	8198.9
9.21261	8021	8189
9.22272	8157	8179.1
9.23283	8292	8169.2
9.24303	8371	8159.2
9.25314	8252	8149.3
9.26325	8159	8139.4
9.27336	8052	8129.5
9.28357	8105	8119.5
9.29368	8101	8109.6
9.30379	8195	8099.6
9.3139	8211	8089.7
9.32411	8175	8079.8
9.33422	8167	8069.9
9.34433	8114	8060
9.35443	8046	8050.1
9.36464	8046	8040.1
9.37475	8030	8030.2
9.38486	7992	8020.3
9.39497	8096	8010.4
9.40508	8093	8000.5
9.41529	8004	7990.5
9.4254	8038	7980.6
9.43551	8061	7970.7
9.44562	7964	7960.8
9.45582	7888	7950.8
9.46593	7953	7940.9
9.47604	7943	7931
9.48625	7961	7921
9.49636	8007	7911.2
9.50647	7902	7901.3
9.51658	7914	7891.4
9.52679	7874	7881.4
9.5369	7772	7871.5
9.54701	7844	7861.6
9.55712	7871	7851.7
9.56723	7779	7841.9
9.57743	7791	7831.9
9.58754	7763	7822.8
9.59765	7725	7813.9
9.60776	7832	7804.9
9.61797	7788	7795.9
9.62808	7711	7787
9.63819	7714	7778
9.6484	7694	7769
9.65851	7684	7760
9.66862	7568	7751.1
9.67873	7671	7742.2
9.68894	7932	7733.1
9.69904	7626	7724.2
9.70915	7666	7715.3
9.71926	7714	7706.3
9.72937	7716	7697.4
9.73958	7659	7688.3
9.74969	7818	7679.4
9.7598	7563	7670.5
9.76991	7618	7661.5
9.78012	7597	7652.5
9.79023	7683	7643.6
9.80034	7747	7634.6
9.81044	7704	7625.7
9.82065	7579	7616.7
9.83076	7637	7607.8
9.84087	7606	7598.8
9.85098	7537	7589.9
9.86119	7665	7580.9
9.8713	7407	7572
9.88141	7637	7563
9.89152	7663	7554.1
9.90173	7567	7545.1
9.91184	7495	7536.2
9.92195	7423	7527.3
9.93206	7560	7518.3
9.94226	7598	7509.3
9.95237	7435	7500.4
9.96248	7464	7491.5
9.97259	7403	7482.6
9.9828	7600	7479.5
9.99291	7574	7470.6
10.00302	7501	7461.7
10.01313	7476	7452.8
10.02334	7418	7446.8
10.03345	7533	7437.9
10.04356	7493	7429
10.05367	7403	7420.2
10.06387	7287	7411.2
10.07398	7257	7402.3
10.08409	7330	7393.5
10.0942	7375	7384.6
10.10441	7391	7375.7
10.11452	7445	7366.8
10.12463	7416	7358
10.13474	7242	7349.1
10.14495	7256	7340.2
10.15506	7278	7331.3
10.16517	7350	7323.1
10.17528	7218	7315
10.18549	7368	7307
10.19559	7259	7298.9
10.2057	7259	7290.8
10.21581	7316	7282.8
10.22602	7271	7274.7
10.23613	7360	7267.9
10.24624	7172	7259.8
10.25635	7279	7251.7
10.26656	7260	7243.6
10.27667	7187	7236.2
10.28678	7212	7228.1
10.29689	7141	7220.1
10.3071	7409	7212
10.31721	7182	7203.9
10.32732	7156	7195.9
10.33742	7347	7187.8
10.34763	7092	7179.7
10.35774	7331	7171.7
10.36785	7154	7163.7
10.37796	7121	7155.6
10.38817	7062	7147.5
10.39828	7127	7139.5
10.40839	7242	7131.5
10.4185	7010	7123.5
10.42871	7230	7115.4
10.43882	7149	7107.4
10.44893	7097	7099.4
10.45904	7134	7091.4
10.46924	7013	7083.3
10.47935	7119	7075.3
10.48946	7047	7067.3
10.49957	7129	7059.3
10.50978	7159	7051.2
10.51989	7003	7043.2
10.53	7006	7035.2
10.54011	7077	7027.3
10.55032	7043	7019.2
10.56043	7098	7011.2
10.57054	6955	7003.3
10.58065	7042	6995.3
10.59086	6980	6987.2
10.60097	7019	6979.3
10.61108	7016	6971.3
10.62119	6898	6963.4
10.63139	7001	6955.3
10.6415	6976	6947.4
10.65161	6881	6939.4
10.66172	6948	6931.5
10.67193	6770	6923.5
10.68204	6959	6915.5
10.69215	6881	6907.6
10.70226	6893	6899.7
10.71247	6875	6891.7
10.72258	6825	6883.8
10.73269	6951	6875.9
10.7428	6881	6868.3
10.75301	6857	6860.9
10.76311	6869	6853.5
10.77322	6922	6846.2
10.78333	6759	6838.8
10.79354	6850	6831.4
10.80365	6739	6824
10.81376	6647	6816.7
10.82387	6786	6809.4
10.83398	6852	6802
10.84419	6802	6794.6
10.8543	6776	6787.3
10.86441	6712	6780
10.87452	6720	6772.7
10.88473	6828	6765.3
10.89484	6817	6758
10.90495	6828	6750.7
10.91506	6858	6743.5
10.92526	6809	6736.1
10.93537	6925	6728.8
10.94548	6643	6721.6
10.95559	6730	6714.3
10.9658	6582	6707
10.97591	6752	6699.8
10.98602	6634	6692.5
10.99613	6704	6685.3
11.00634	6582	6678
11.01645	6645	6670.8
11.02656	6634	6663.6
11.03667	6520	6656.4
11.04688	6755	6649.1
11.05699	6698	6641.9
11.0671	6596	6634.8
11.07721	6633	6627.6
11.08741	6560	6620.4
11.09752	6639	6613.2
11.10763	6527	6606.1
11.11774	6636	6599
11.12795	6545	6591.8
11.13806	6537	6584.7
11.14817	6507	6577.6
11.15828	6511	6572
11.16849	6504	6564.9
11.1786	6464	6557.8
11.18871	6586	6550.8
11.19882	6614	6544.5
11.20903	6515	6537.4
11.21914	6620	6530.4
11.22925	6558	6523.4
11.23936	6554	6516.5
11.24957	6716	6509.4
11.25968	6436	6502.5
11.26978	6449	6495.5
11.27989	6597	6488.6
11.2901	6616	6481.7
11.30021	6373	6474.8
11.31032	6502	6467.9
11.32043	6407	6462
11.33064	6503	6456.8
11.34075	6502	6451.7
11.35086	6446	6446.5
11.36097	6555	6441.4
11.37118	6386	6436.3
11.38129	6574	6431.2
11.3914	6477	6426.2
11.40151	6462	6421.2
11.41172	6366	6416.1
11.42183	6437	6411.1
11.43194	6465	6406.2
11.44205	6338	6401.2
11.45226	6330	6396.3
11.46236	6277	6391.4
11.47247	6394	6386.5
11.48258	6515	6381.7
11.49279	6472	6376.8
11.5029	6319	6372.1
11.51301	6492	6367.3
11.52312	6196	6362.6
11.53333	6296	6357.9
11.54344	6070	6353.2
11.55355	6250	6348.6
11.56366	6167	6344
11.57387	6412	6339.4
11.58398	6281	6334.9
11.59409	6267	6330.4
11.6042	6312	6326
11.61441	6425	6321.6
11.62452	6321	6317.2
11.63463	6296	6312.9
11.64474	6309	6308.7
11.65494	6217	6304.5
11.66505	6347	6300.3
11.67516	6175	6296.2
11.68527	6316	6292.2
11.69548	6407	6288.2
11.70559	6418	6284.2
11.7157	6381	6280.4
11.72581	6322	6276.6
11.73602	6281	6272.8
11.74613	6280	6269.2
11.75624	6243	6265.6
11.76635	6128	6262.1
11.77656	6307	6258.7
11.78667	6330	6255.4
11.79678	6162	6252.1
11.80689	6166	6249
11.8171	6251	6245.9
11.82721	6275	6243
11.83732	6413	6240.2
11.84743	6292	6237.5
11.85763	6150	6234.9
11.86775	6296	6232.5
11.87785	6257	6230.2
11.88797	6216	6228
11.89817	6331	6231.8
11.90828	6320	6241.7
11.91839	6307	6251.8
11.9285	6259	6262
11.93871	6347	6272.6
11.94882	6207	6283.2
11.95893	6223	6294
11.96904	6365	6305.1
11.97925	6399	6316.4
11.98936	6284	6328
11.99947	6359	6339.7
12.00958	6316	6351.8
12.01979	6205	6364.2
12.0299	6293	6376.8
12.04001	6242	6389.7
12.05012	6384	6402.8
12.06033	6329	6416.5
12.07044	6425	6430.3
12.08055	6381	6444.4
12.09066	6540	6458.9
12.10077	6441	6473.7
12.11098	6356	6489.1
12.12109	6340	6504.6
12.1312	6549	6520.6
12.1413	6578	6536.9
12.15151	6319	6553.8
12.16162	6524	6571
12.17173	6765	6588.7
12.18184	6545	6607
12.19205	6645	6626
12.20216	6555	6645.5
12.21227	6668	6665.8
12.22238	6744	6686.9
12.23259	6689	6709.3
12.2427	6884	6732.6
12.25281	6878	6757.3
12.26292	6746	6783.4
12.27313	6818	6811.4
12.28324	6851	6841
12.29335	6880	6872.6
12.30346	7020	6906.3
12.31367	6930	6942.5
12.32378	7070	6980.4
12.33389	6948	7020.4
12.344	7185	7061.9
12.35421	7081	7105.2
12.36432	7372	7148.6
12.37443	7362	7191.8
12.38454	7481	7233.9
12.39474	7469	7274.2
12.40486	7695	7311
12.41496	7605	7343.8
12.42508	7879	7372
12.43528	7831	7395.3
12.44539	7963	7413.5
12.4555	7781	7427
12.46561	7802	7436.5
12.47582	7731	7428.5
12.48593	7630	7396.2
12.49604	7352	7362.8
12.50615	7287	7336.4
12.51636	7215	7303.5
12.52647	7157	7272.4
12.53658	6952	7243.5
12.54669	7026	7217
12.5569	6910	7196.5
12.56701	6955	7175.6
12.57712	7042	7157.6
12.58723	6887	7142.5
12.59744	6975	7130.3
12.60755	6951	7121.1
12.61766	6971	7115
12.62777	7083	7112.2
12.63798	7141	7112.7
12.64809	7038	7117.1
12.6582	7051	7125.6
12.66831	6916	7138.7
12.67852	7108	7157.4
12.68863	7177	7181.7
12.69874	7094	7212.7
12.70885	7167	7250.8
12.71906	7208	7297.3
12.72917	7309	7351.5
12.73928	7167	7413.9
12.74939	7230	7484.2
12.75959	7352	7562.2
12.76971	7381	7645
12.77982	7417	7730.9
12.78993	7475	7816.6
12.80013	7583	7899.2
12.81025	7604	7972.3
12.82035	7766	8032.2
12.83047	7939	8074.1
12.84067	7947	8094.2
12.85078	8094	8089.1
12.86089	8042	8057.7
12.871	8059	8000.2
12.88121	7807	7917.5
12.89132	7908	7814.3
12.90143	7849	7694.1
12.91154	7647	7561.6
12.92175	7363	7420
12.93186	7235	7276.5
12.94197	6917	7133.6
12.95208	6789	6994.4
12.96229	6696	6859.9
12.9724	6630	6734.3
12.98251	6672	6617.2
12.99262	6382	6508.9
13.00283	6473	6408.5
13.01294	6288	6317.5
13.02305	6472	6234.4
13.03316	6187	6158.4
13.04337	6310	6088
13.05348	6172	6034.3
13.06359	6276	6010.9
13.0737	6097	5990.7
13.08391	6071	5972.4
13.09402	6074	5955.2
13.10413	5882	5938
13.11424	5971	5919.9
13.12445	5994	5900
13.13456	5927	5878.1
13.14467	5820	5853.9
13.15478	5874	5827.4
13.16499	5741	5798.6
13.1751	5917	5768.5
13.18521	5834	5737.4
13.19532	5755	5705.9
13.20553	5643	5674.4
13.21564	5633	5643.9
13.22575	5694	5614.7
13.23586	5577	5587.1
13.24607	5575	5561
13.25618	5534	5537.1
13.26629	5617	5515.2
13.2764	5492	5495.3
13.28661	5632	5477.1
13.29672	5577	5460.9
13.30683	5709	5446.5
13.31694	5484	5433.5
13.32715	5453	5421.9
13.33726	5471	5411.8
13.34737	5483	5402.8
13.35748	5430	5394.9
13.36759	5424	5388
13.3778	5455	5381.9
13.38791	5444	5376.8
13.39802	5402	5372.4
13.40813	5429	5368.7
13.41834	5486	5365.7
13.42845	5396	5363.3
13.43856	5354	5361.6
13.44867	5364	5360.4
13.45888	5435	5359.8
13.46899	5402	5359.8
13.4791	5352	5360.3
13.48921	5461	5361.3
13.49942	5384	5362.9
13.50953	5458	5364.9
13.51964	5336	5367.4
13.52975	5316	5370.3
13.53996	5391	5373.8
13.55007	5445	5377.7
13.56018	5341	5382
13.57029	5245	5386.8
13.5805	5409	5392
13.59061	5268	5397.7
13.60072	5193	5403.7
13.61083	5459	5410.2
13.62104	5365	5417.1
13.63115	5311	5421.4
13.64126	5324	5412.8
13.65137	5316	5404.7
13.66158	5290	5396.9
13.67169	5139	5389.5
13.6818	5233	5382.6
13.69191	5271	5376.1
13.70212	5469	5370
13.71223	5331	5364.3
13.72234	5345	5359.1
13.73245	5341	5354.3
13.74266	5336	5349.9
13.75277	5230	5346
13.76288	5294	5342.6
13.77299	5275	5339.7
13.7832	5399	5337.2
13.79331	5325	5335.3
13.80342	5377	5335.1
13.81353	5322	5334.3
13.82374	5191	5334.1
13.83385	5410	5334.5
13.84396	5256	5336.1
13.85407	5341	5337.8
13.86428	5475	5340.2
13.87439	5360	5343.3
13.8845	5233	5347.2
13.89461	5333	5351.8
13.90482	5353	5357.4
13.91493	5405	5363.8
13.92504	5431	5371.2
13.93515	5518	5379.6
13.94536	5507	5389.1
13.95547	5482	5399.7
13.96558	5432	5411.4
13.97569	5550	5424.5
13.9859	5531	5439
13.99601	5569	5454.8
14.00612	5553	5472.2
14.01623	5661	5491.2
14.02644	5596	5512.1
14.03655	5730	5534.7
14.04666	5604	5559.1
14.05677	5642	5585.5
14.06698	5538	5614.3
14.07709	5668	5645
14.0872	5696	5677.9
14.09731	5716	5713
14.10752	5879	5750.9
14.11763	5820	5790.8
14.12774	6016	5833.1
14.13785	5998	5877.7
14.14806	5864	5925.4
14.15817	5998	5975
14.16828	6073	6027.2
14.17839	6158	6082
14.1886	6096	6140
14.19871	6206	6200.3
14.20882	6351	6263.4
14.21893	6529	6327.7
14.22914	6539	6396.1
14.23925	6591	6467.7
14.24936	6788	6543.7
14.25947	6778	6624.8
14.26968	6922	6712.5
14.27979	6908	6806.3
14.2899	7137	6908.1
14.30001	7190	7019.4
14.31022	7249	7143
14.32033	7344	7278.4
14.33044	7585	7428.4
14.34055	7631	7595
14.35076	7718	7781.9
14.36087	7885	7986.7
14.37098	8185	8212
14.38109	8251	8457.5
14.3913	8344	8724.6
14.40141	8686	9005
14.41152	8843	9296.1
14.42164	8999	9591
14.43184	9308	9883.3
14.44195	9562	10156.1
14.45207	9857	10400.6
14.46218	10077	10604.5
14.47239	10246	10758.2
14.4825	10541	10850.4
14.49261	10660	10877.7
14.50272	10646	10839.5
14.51293	10859	10738
14.52304	10513	10582.3
14.53315	10262	10381.8
14.54326	9907	10148.3
14.55347	9504	9892.9
14.56358	9196	9629.4
14.57369	8846	9367.4
14.5838	8615	9115.3
14.59391	8280	8879.3
14.60412	8169	8662.6
14.61423	8268	8470.1
14.62434	7973	8301.1
14.63445	7839	8154.6
14.64466	8042	8027.5
14.65477	8024	7919.1
14.66488	7893	7824.4
14.67499	8024	7739.4
14.6852	7907	7658.7
14.69531	7936	7579.8
14.70542	7807	7497.8
14.71553	7824	7409.6
14.72574	7753	7311.8
14.73585	7773	7205.2
14.74596	7592	7088.5
14.75607	7586	6962.7
14.76628	7329	6828
14.77639	7198	6689.3
14.7865	6976	6547.7
14.79662	6728	6436.5
14.80682	6510	6326.6
14.81694	6227	6221.4
14.82705	6207	6121.2
14.83716	6124	6027.1
14.84737	5918	5938.9
14.85748	5805	5858.5
14.86759	5755	5784.9
14.8777	5733	5718.1
14.88791	5632	5657
14.89802	5649	5602.3
14.90813	5733	5553.1
14.91824	5666	5508.7
14.92845	5426	5468.4
14.93856	5560	5432.5
14.94867	5476	5400.2
14.95878	5286	5371.2
14.96899	5461	5344.8
14.9791	5330	5321.5
14.98921	5256	5300.6
14.99932	5206	5282.1
15.00953	5287	5265.6
15.01964	5207	5251.3
15.02975	5107	5238.9
15.03986	5158	5228.5
15.05007	5265	5219.8
15.06018	5006	5213
15.0703	5075	5207.8
15.08041	5110	5204.4
15.09062	5019	5202.6
15.10073	5190	5202.4
15.11084	5039	5203.7
15.12095	4936	5206.6
15.13116	5104	5211.1
15.14127	5034	5216.9
15.15138	5027	5224.3
15.16149	5115	5233
15.1717	5147	5243.3
15.18181	5128	5254.9
15.19192	5133	5267.8
15.20203	5073	5282.1
15.21224	5107	5297.8
15.22235	5189	5314.7
15.23246	5210	5332.9
15.24257	5090	5352.3
15.25278	5214	5373.2
15.26289	5238	5395.1
15.273	5181	5418.1
15.28311	5234	5442.4
15.29332	5277	5468.1
15.30344	5298	5494.7
15.31355	5421	5522.5
15.32366	5370	5551.4
15.33387	5338	5581.9
15.34398	5523	5613.3
15.35409	5443	5646.1
15.3642	5537	5680.4
15.37441	5633	5693
15.38452	5630	5704.3
15.39463	5667	5717.7
15.40474	5662	5733.7
15.41495	5825	5752.7
15.42506	5736	5775
15.43517	5900	5801
15.44528	6013	5831.4
15.45549	5870	5868.1
15.4656	5991	5908.5
15.47571	6160	5954.3
15.48583	6043	6005.6
15.49603	6152	6062.6
15.50615	6485	6124.1
15.51626	6344	6188.3
15.52637	6295	6254
15.53658	6559	6319.3
15.54669	6696	6380.3
15.5568	6834	6434.4
15.56691	6807	6478.3
15.57712	6990	6509.2
15.58723	6989	6524.3
15.59734	7014	6522.3
15.60745	6982	6503
15.61766	6806	6466.5
15.62777	6905	6415.3
15.63788	6846	6351.6
15.64799	6825	6278.3
15.6582	6505	6197.9
15.66831	6352	6114.8
15.67843	6421	6030.9
15.68854	6165	5948.6
15.69875	6070	5868.7
15.70886	5949	5793.9
15.71897	5889	5724
15.72908	5843	5659.4
15.73929	5728	5599.5
15.7494	5704	5545.2
15.75951	5455	5495.5
15.76962	5478	5449.9
15.77983	5477	5407.6
15.78994	5385	5368.8
15.80005	5510	5332.8
15.81016	5339	5299.2
15.82037	5480	5267.2
15.83049	5164	5237.3
15.8406	5140	5208.9
15.85071	5224	5181.7
15.86092	5214	5155.5
15.87103	5044	5130.6
15.88114	4966	5106.6
15.89125	4859	5083.6
15.90136	5088	5061.5
15.91157	5010	5040
15.92168	4848	5019.7
15.93179	4851	5000.1
15.9419	4913	4981.4
15.95211	4823	4963.6
15.96222	5026	4946.8
15.97233	4898	4930.8
15.98245	4740	4915.7
15.99266	4754	4901.2
16.00277	4762	4887.7
16.01288	4819	4874.9
16.02299	4673	4863
16.0332	4793	4851.6
16.04331	4739	4841.2
16.05342	4709	4831.4
16.06353	4859	4822.4
16.07374	4756	4813.9
16.08385	4651	4806.3
16.09396	4665	4799.3
16.10407	4819	4793
16.11428	4679	4787.3
16.1244	4648	4782.3
16.13451	4641	4778
16.14462	4725	4774.4
16.15483	4700	4771.3
16.16494	4717	4769
16.17505	4641	4767.4
16.18516	4683	4766.4
16.19537	4707	4766.1
16.20548	4621	4766.6
16.21559	4688	4767.8
16.2257	4798	4769.7
16.23591	4750	4772.5
16.24603	4701	4776
16.25614	4671	4780.4
16.26625	4720	4785.6
16.27646	4801	4791.8
16.28657	4849	4799
16.29668	4858	4807.1
16.30679	4715	4816.3
16.317	4723	4826.6
16.32711	4902	4838.1
16.33722	4797	4852.2
16.34733	4855	4866.2
16.35754	4899	4881.7
16.36765	4915	4898.5
16.37777	4781	4917
16.38788	4871	4937.7
16.39809	4893	4959.7
16.4082	5014	4983.4
16.41831	4924	5009
16.42842	4874	5036.7
16.43863	4937	5067
16.44874	5149	5099.2
16.45885	5161	5133.9
16.46896	5054	5171.1
16.47917	5216	5211.4
16.48929	5228	5254.2
16.4994	5300	5299.7
16.50951	5418	5348.3
16.51972	5500	5400.4
16.52983	5420	5453.5
16.53994	5413	5509.1
16.55005	5514	5567.8
16.56026	5722	5630.5
16.57037	5705	5695.9
16.58048	5767	5764.7
16.5906	5903	5837
16.60081	5971	5913.6
16.61092	6115	5993.5
16.62103	6040	6077.4
16.63114	6305	6166.1
16.64135	6316	6260.9
16.65146	6710	6360.9
16.66157	6728	6468.1
16.67168	6669	6583.7
16.68189	7317	6710.6
16.69201	7180	6848.4
16.70211	7398	7000.2
16.71222	7404	7168.6
16.72243	7666	7357.8
16.73255	7823	7566.5
16.74266	7877	7798.7
16.75277	8189	8055.7
16.76298	8152	8341
16.77309	8488	8647.9
16.7832	8901	8976.4
16.79331	8880	9320.9
16.80352	9292	9676.9
16.81363	9458	10026.5
16.82375	10109	10359.5
16.83386	10281	10661
16.84407	10952	10917.4
16.85418	10975	11109.1
16.86429	11399	11227
16.8744	11703	11263.7
16.88461	11599	11215.9
16.89472	11628	11087.4
16.90483	11395	10885.8
16.91495	11263	10622.5
16.92516	10834	10308.3
16.93527	10105	9964.1
16.94538	9511	9601.6
16.95549	9154	9233.8
16.9657	8443	8868
16.97581	8083	8519.5
16.98592	7784	8190.5
16.99603	7674	7884.5
17.00624	7353	7600.3
17.01636	7217	7343.4
17.02647	6898	7109.7
17.03658	6914	6897.4
17.04679	6857	6702.5
17.0569	6547	6526.4
17.06701	6515	6364.8
17.07712	6495	6215.7
17.08733	6340	6075.2
17.09744	6095	5945.5
17.10756	6025	5836.2
17.11767	5827	5742.1
17.12788	5597	5652.8
17.13799	5688	5569.3
17.1481	5321	5490
17.15821	5439	5414.8
17.16832	5179	5343.3
17.17853	5125	5274.7
17.18864	5153	5210.2
17.19876	5117	5149
17.20887	5027	5091.2
17.21908	4934	5036.1
17.22919	4853	4984.7
17.2393	4722	4936.4
17.24941	4732	4891.3
17.25962	4725	4848.7
17.26974	4675	4809.4
17.27984	4810	4772.9
17.28996	4773	4739.1
17.30017	4695	4707.6
17.31028	4721	4678.8
17.32039	4591	4652.4
17.3305	4641	4628.2
17.34071	4610	4605.9
17.35082	4590	4585.8
17.36094	4529	4567.6
17.37105	4618	4551.1
17.38126	4472	4536.1
17.39137	4523	4522.9
17.40148	4680	4511.1
17.41159	4458	4500.8
17.4218	4472	4491.6
17.43191	4605	4483.8
17.44202	4554	4478
17.45214	4496	4472.5
17.46235	4509	4468
17.47246	4548	4464.5
17.48257	4442	4459.6
17.49268	4571	4458
17.50289	4513	4456.5
17.513	4526	4456.6
17.52312	4510	4457.5
17.53323	4539	4459.2
17.54344	4406	4461.7
17.55355	4609	4464.9
17.56366	4534	4468.7
17.57377	4433	4473.3
17.58398	4461	4478.6
17.59409	4479	4484.5
17.6042	4490	4491.1
17.61432	4374	4498.3
17.62453	4466	4506.2
17.63464	4500	4514.8
17.64475	4348	4523.9
17.65486	4540	4533.7
17.66507	4503	4544.3
17.67518	4532	4555.4
17.6853	4573	4560.5
17.69541	4631	4559
17.70562	4428	4558.3
17.71573	4556	4558.2
17.72584	4631	4558.8
17.73595	4503	4559.8
17.74616	4463	4561.9
17.75627	4469	4564.6
17.76639	4585	4567.9
17.7765	4581	4572.1
17.78671	4582	4577.1
17.79682	4569	4582.8
17.80693	4643	4589.3
17.81704	4672	4596.4
17.82725	4678	4604.4
17.83736	4649	4613.2
17.84748	4574	4622.7
17.85759	4736	4633.1
17.8678	4684	4644.6
17.87791	4674	4656.9
17.88802	4727	4670.4
17.89813	4708	4685.2
17.90834	4694	4701.7
17.91846	4843	4719.8
17.92857	4829	4739.9
17.93868	4862	4762.4
17.94889	4781	4787.9
17.959	4929	4816.3
17.96911	4988	4848.3
17.97922	4932	4884.1
17.98944	4878	4924.5
17.99955	4918	4968.6
18.00966	5083	5016.6
18.01977	5099	5068.1
18.02998	5026	5122.5
18.04009	5165	5177.5
18.05021	5198	5231.6
18.06032	5121	5282.7
18.07053	5434	5328.6
18.08064	5373	5366
18.09075	5298	5393.1
18.10086	5267	5408.1
18.11107	5255	5410.2
18.12119	5392	5399
18.1313	5215	5375.5
18.14141	5172	5340.9
18.15162	5044	5296.8
18.16173	5158	5246.3
18.17184	5156	5191.3
18.18195	5113	5134.1
18.19217	5042	5076.1
18.20228	4935	5020.1
18.21239	4829	4966.8
18.2225	4884	4917.6
18.23271	4894	4871.3
18.24282	4799	4829.6
18.25293	4762	4791.9
18.26305	4741	4759
18.27326	4792	4731
18.28337	4704	4706.2
18.29348	4741	4684.2
18.30359	4692	4664.7
18.3138	4634	4647.3
18.32392	4529	4631.9
18.33403	4686	4618.2
18.34414	4571	4606
18.35435	4580	4595
18.36446	4529	4585.3
18.37457	4598	4576.9
18.38469	4591	4569.5
18.3949	4565	4563.2
18.40501	4660	4558
18.41512	4504	4554
18.42523	4641	4551
18.43544	4529	4549.2
18.44555	4491	4548.5
18.45567	4555	4548.9
18.46578	4568	4550.6
18.47599	4522	4553.4
18.4861	4582	4557.4
18.49621	4600	4562.6
18.50632	4596	4569
18.51644	4593	4576.6
18.52665	4698	4585.4
18.53676	4717	4595.3
18.54687	4663	4606.4
18.55698	4673	4618.7
18.56719	4733	4632.3
18.5773	4722	4646.9
18.58742	4722	4662.9
18.59753	4726	4680.1
18.60774	4796	4699
18.61785	4675	4719.4
18.62797	4857	4741.6
18.63808	4869	4765.9
18.64829	4832	4793
18.6584	5004	4822.7
18.66851	4953	4855.8
18.67862	5059	4892.7
18.68884	5162	4934.5
18.69895	5109	4980.9
18.70906	5211	5032.6
18.71917	5150	5090.1
18.72938	5395	5154
18.73949	5319	5222.7
18.74961	5376	5296.3
18.75972	5316	5373.3
18.76993	5482	5452.6
18.78004	5457	5530
18.79015	5664	5603.4
18.80026	5689	5669.2
18.81047	5637	5724.6
18.82059	5786	5765.4
18.8307	5760	5789.8
18.84081	5813	5797
18.85102	5893	5787.3
18.86113	5807	5760.5
18.87125	5740	5719.5
18.88136	5491	5664.6
18.89157	5418	5599.1
18.90168	5521	5527.6
18.91179	5457	5452.4
18.92191	5200	5377
18.93212	5120	5301.7
18.94223	5044	5230.4
18.95234	5167	5164.1
18.96245	4989	5102.3
18.97266	4825	5045.3
18.98277	4894	4988.4
18.99289	4897	4942.6
19.003	4868	4903.7
19.01321	4723	4866.5
19.02332	4831	4830.4
19.03343	4829	4800.6
19.04355	4692	4773.5
19.05376	4776	4749.4
19.06387	4770	4726.8
19.07398	4715	4705.8
19.0841	4711	4686.4
19.09431	4669	4668.1
19.10442	4734	4651.2
19.11453	4496	4635.4
19.12464	4582	4620.7
19.13485	4531	4606.8
19.14497	4518	4594
19.15508	4422	4582.2
19.16519	4463	4571.2
19.1754	4510	4561.2
19.18551	4417	4552.2
19.19563	4508	4544.2
19.20574	4630	4535.8
19.21595	4347	4529.6
19.22606	4615	4524.4
19.23617	4492	4520.1
19.24629	4487	4516.1
19.2565	4491	4513.6
19.26661	4484	4512
19.27672	4419	4511.3
19.28683	4511	4511.6
19.29704	4571	4512.7
19.30716	4450	4514.6
19.31727	4404	4517.4
19.32738	4437	4521.1
19.33759	4445	4525.7
19.34771	4479	4531.1
19.35782	4428	4537.3
19.36793	4450	4544.4
19.37814	4557	4552.3
19.38825	4655	4561
19.39837	4537	4570.5
19.40848	4668	4580.8
19.41869	4602	4591.6
19.4288	4663	4601.3
19.43891	4668	4611.9
19.44903	4618	4623.2
19.45924	4676	4635.6
19.46935	4599	4648.8
19.47946	4706	4663.1
19.48957	4808	4678.5
19.49978	4917	4695.5
19.5099	4576	4714
19.52001	4838	4734.3
19.53012	4800	4756.8
19.54033	4895	4782
19.55045	4831	4810
19.56056	4878	4841.3
19.57067	4867	4876.4
19.58088	5034	4915.9
19.59099	5098	4959.2
19.60111	5080	5006.8
19.61122	5256	5058.3
19.62143	5162	5113.5
19.63154	5126	5170.4
19.64165	5253	5227.8
19.65177	5261	5283.7
19.66198	5303	5336.3
19.67209	5471	5381.9
19.6822	5475	5418.6
19.69231	5429	5444.3
19.70243	5721	5457.6
19.71264	5509	5457.7
19.72275	5513	5444.7
19.73286	5473	5419.7
19.74298	5513	5384.1
19.75319	5574	5339.5
19.7633	5282	5289
19.77341	5273	5234.5
19.78353	5117	5178.2
19.79374	5081	5121.5
19.80385	4987	5066.9
19.81396	4945	5015
19.82407	4929	4966.7
19.83428	4844	4921.8
19.8444	4886	4881.4
19.85451	4857	4844.9
19.86462	4844	4812.1
19.87483	4873	4782.3
19.88494	4727	4755.8
19.89506	4815	4731.9
19.90517	4750	4710.3
19.91538	4698	4690.4
19.9255	4684	4675.9
19.93561	4719	4659.3
19.94572	4628	4643.9
19.95593	4544	4629.5
19.96604	4535	4616.2
19.97616	4521	4603.8
19.98627	4507	4593.9
19.99648	4517	4583.1
20.00659	4490	4572.9
20.0167	4577	4562.1
20.02682	4521	4553.5
20.03703	4401	4545.6
20.04714	4498	4538.6
20.05725	4487	4531.6
20.06737	4495	4526.1
20.07758	4376	4521.4
20.08769	4541	4517.5
20.09781	4507	4514.4
20.10792	4471	4512.1
20.11813	4542	4510.6
20.12824	4620	4509.9
20.13835	4449	4510
20.14847	4455	4510.9
20.15868	4416	4512.6
20.16879	4486	4515.2
20.1789	4497	4518.5
20.18901	4537	4522.7
20.19923	4558	4527.8
20.20934	4507	4533.6
20.21945	4519	4540.3
20.22956	4627	4547.8
20.23978	4569	4556.3
20.24989	4573	4565.5
20.26	4520	4575.5
20.27011	4519	4586.4
20.28032	4631	4598.3
20.29044	4765	4611.5
20.30055	4630	4624.9
20.31067	4722	4639.3
20.32088	4738	4654.7
20.33099	4626	4670.9
20.3411	4668	4688.2
20.35121	4728	4707.1
20.36143	4771	4727.3
20.37154	4833	4748.9
20.38165	4812	4772.5
20.39176	4898	4798.3
20.40197	4861	4827
20.41209	4899	4858.7
20.4222	5009	4893.9
20.43231	5084	4933.2
20.44253	4998	4977.5
20.45264	5173	5026.3
20.46275	5092	5080
20.47286	5093	5138.6
20.48307	5240	5202.2
20.49319	5182	5268.6
20.5033	5339	5336.9
20.51341	5481	5405
20.52363	5464	5470.9
20.53374	5638	5530.3
20.54385	5603	5580.9
20.55396	5670	5620
20.56417	5667	5645.5
20.57429	5566	5655.5
20.5844	5565	5651.5
20.59451	5531	5632.5
20.60472	5571	5599.4
20.61484	5554	5554.8
20.62495	5428	5501
20.63506	5374	5440.6
20.64528	5166	5375.5
20.65539	5270	5309.6
20.6655	5222	5244.8
20.67561	5265	5181.8
20.68583	5125	5121.6
20.69594	5043	5066.4
20.70605	4940	5015.7
20.71616	4952	4969.7
20.72638	4892	4928
20.73649	4931	4890.7
20.7466	4852	4862.4
20.75672	4978	4832.1
20.76693	4751	4804.5
20.77704	4879	4779.6
20.78715	4837	4756.8
20.79726	4708	4735.8
20.80748	4709	4718.7
20.81759	4678	4700.5
20.8277	4621	4683.4
20.83781	4617	4667.3
20.84803	4626	4652
20.85814	4515	4637.7
20.86825	4814	4624.1
20.87837	4596	4611.4
20.88858	4540	4599.2
20.89869	4548	4588
20.9088	4634	4577.4
20.91892	4576	4567.6
20.92913	4511	4558.3
20.93924	4510	4549.8
20.94935	4479	4542
20.95947	4548	4534.9
20.96968	4549	4528.3
20.97979	4518	4522.4
20.9899	4436	4517.2
21.00002	4389	4512.5
21.01023	4444	4508.4
21.02034	4518	4504.8
21.03046	4428	4501.8
21.04057	4423	4499.4
21.05068	4507	4497.5
21.06089	4470	4496.1
21.07101	4453	4495.2
21.08112	4452	4494.8
21.09123	4455	4494.9
21.10145	4388	4495.5
21.11156	4591	4496.4
21.12167	4585	4497.7
21.13178	4514	4499.4
21.142	4521	4501.3
21.15211	4471	4503.5
21.16222	4446	4505.4
21.17233	4444	4507.3
21.18255	4520	4509.4
21.19266	4432	4511.5
21.20277	4544	4513.6
21.21289	4415	4515.9
21.2231	4568	4511.2
21.23321	4487	4513.9
21.24332	4663	4516.7
21.25344	4629	4519.9
21.26365	4480	4519.9
21.27376	4523	4523.9
21.28388	4559	4528.3
21.29399	4490	4533.1
21.3042	4717	4538.6
21.31431	4634	4544.5
21.32443	4522	4551
21.33454	4530	4558.1
21.34475	4627	4565.7
21.35487	4597	4573.9
21.36498	4606	4582.5
21.37509	4576	4591.8
21.3853	4647	4601.6
21.39542	4648	4611.9
21.40553	4627	4622.8
21.41565	4732	4634.3
21.42586	4565	4646.5
21.43597	4698	4659.3
21.44608	4644	4672.9
21.4562	4698	4687.4
21.46641	4719	4703.1
21.47652	4848	4719.9
21.48664	4774	4738.1
21.49675	4893	4758.1
21.50696	4961	4780.2
21.51707	4874	4804.5
21.52719	4847	4831.3
21.5373	4818	4861
21.54751	4894	4894
21.55763	5051	4929.8
21.56774	4920	4968.7
21.57785	5005	5010.1
21.58806	5106	5054
21.59818	5033	5098.4
21.60829	5199	5142.5
21.6184	5164	5184.5
21.62862	5403	5223
21.63873	5318	5255.5
21.64884	5352	5280.6
21.65896	5277	5297.2
21.66917	5378	5305.2
21.67928	5390	5303
21.68939	5330	5291.8
21.69951	5292	5272.5
21.70972	5217	5246
21.71983	5171	5214.4
21.72995	5062	5179.3
21.74006	5222	5140
21.75027	5107	5098.9
21.76039	4793	5058.7
21.7705	4942	5020
21.78061	5066	4983.5
21.79082	4924	4949.4
21.80094	4910	4918.5
21.81105	4801	4890.5
21.82117	4746	4865.3
21.83138	4898	4842.5
21.84149	4746	4822.4
21.8516	4801	4804.3
21.86172	4722	4788.1
21.87193	4617	4773.4
21.88204	4707	4760.3
21.89216	4891	4748.3
21.90227	4645	4737.4
21.91248	4640	4727.5
21.9226	4755	4718.4
21.93271	4634	4710.3
21.94282	4643	4702.9
21.95304	4631	4696.2
21.96315	4815	4690.3
21.97326	4592	4685.3
21.98338	4750	4680.9
21.99359	4623	4677.3
22.0037	4628	4674.5
22.01381	4571	4672.4
22.02393	4746	4671
22.03414	4724	4670.2
22.04425	4726	4669.9
22.05437	4775	4670.2
22.06448	4727	4670.9
22.07469	4677	4672.1
22.08481	4766	4673.5
22.09492	4610	4675.3
22.10503	4775	4677.4
22.11525	4648	4679.9
22.12536	4677	4682.7
22.13548	4623	4686
22.14559	4606	4689.5
22.1558	4670	4693.6
22.16591	4559	4698.1
22.17603	4563	4703.1
22.18614	4635	4708.6
22.19635	4616	4714.8
22.20647	4686	4721.5
22.21658	4801	4729
22.22669	4870	4737.2
22.23681	4775	4746.4
22.24702	4777	4756.8
22.25713	4740	4768.3
22.26725	4749	4781.3
22.27736	4794	4796
22.28757	4924	4812.8
22.29769	4795	4831.6
22.3078	4843	4852.8
22.31791	4807	4873.9
22.32813	4842	4896.6
22.33824	4945	4921.8
22.34835	5042	4949.3
22.35847	5023	4978.9
22.36868	5081	5009.9
22.37879	5137	5041
22.38891	5163	5071.1
22.39902	5109	5097.7
22.40924	5134	5121.8
22.41935	5171	5140.5
22.42946	5269	5152.9
22.43958	5142	5158.3
22.44979	5078	5156.5
22.4599	5276	5147.6
22.47001	5219	5132.2
22.48013	5118	5111.3
22.49034	5175	5085.7
22.50046	5047	5057.4
22.51057	5055	5026.8
22.52068	5065	4995.8
22.5309	4949	4964.3
22.54101	4958	4934.3
22.55112	4935	4906.1
22.56124	5007	4880.2
22.57145	4763	4856.7
22.58156	4804	4836.2
22.59168	4833	4818.3
22.60179	4852	4802.9
22.612	4747	4789.8
22.62212	4858	4779.1
22.63223	4712	4770.4
22.64235	4646	4763.7
22.65256	4698	4758.7
22.66267	4709	4755.4
22.67278	4761	4753.6
22.6829	4722	4753.3
22.69311	4755	4754.4
22.70323	4648	4757.7
22.71334	4660	4761.7
22.72345	4793	4767.1
22.73367	4897	4774
22.74378	4763	4782.4
22.75389	4736	4792.3
22.76401	4676	4804.1
22.77422	4755	4817.3
22.78433	4758	4832.1
22.79445	4876	4848.6
22.80456	4693	4866.8
22.81477	4697	4887.1
22.82489	4751	4909.1
22.835	4917	4933
22.84512	4966	4958.9
22.85533	4909	4987.3
22.86544	5041	5017.7
22.87556	5105	5050.4
22.88567	5074	5085.8
22.89588	5247	5125.6
22.906	5082	5168.9
22.91611	5206	5215.7
22.92623	5272	5266.4
22.93644	5237	5322
22.94655	5325	5381.9
22.95667	5569	5447
22.96678	5517	5518
22.97699	5594	5595.8
22.98711	5816	5679.4
22.99722	5834	5769.5
23.00734	5887	5865.8
23.01755	6075	5968.8
23.02766	6135	6075.7
23.03778	6165	6186
23.04789	6490	6298.2
23.0581	6425	6411.6
23.06822	6665	6522.4
23.07833	6746	6630.3
23.08845	6764	6734.2
23.09866	6957	6832.8
23.10877	7081	6926.5
23.11889	7040	7014.6
23.129	7262	7096.1
23.13921	7112	7171.3
23.14933	7280	7236.3
23.15944	7384	7291.8
23.16956	7253	7334.9
23.17977	7342	7363.5
23.18988	7306	7374.6
23.2	7391	7366.8
23.21011	7393	7338.5
23.22032	7165	7288.6
23.23044	7120	7218.8
23.24055	7112	7130.2
23.25067	6994	7025.2
23.26088	7022	6905.6
23.27099	6914	6777.2
23.28111	6665	6642.4
23.29122	6470	6504.6
23.30144	6535	6365.6
23.31155	6407	6230.9
23.32166	6191	6101.4
23.33178	5910	5978.7
23.34199	5846	5862.7
23.3521	5887	5756.3
23.36222	5708	5658.3
23.37233	5451	5568.4
23.38255	5411	5485.4
23.39266	5568	5410.3
23.40277	5282	5341.4
23.41289	5340	5278.2
23.4231	5103	5219.3
23.43322	5155	5165.3
23.44333	5091	5115.1
23.45344	5133	5068.3
23.46366	5054	5024.1
23.47377	4913	4982.6
23.48389	4873	4943.2
23.494	4853	4906.1
23.50421	4935	4870.8
23.51433	4720	4838
23.52444	4840	4807.2
23.53456	4801	4778.4
23.54477	4682	4751.2
23.55488	4611	4726.2
23.565	4594	4703.1
23.57511	4825	4681.7
23.58523	4585	4662.2
23.59544	4554	4644.2
23.60555	4486	4628.2
23.61567	4587	4613.9
23.62578	4539	4601.3
23.636	4533	4590.3
23.64611	4549	4581
23.65622	4617	4573.4
23.66634	4542	4567.5
23.67655	4533	4563.2
23.68667	4619	4560.5
23.69678	4379	4559.6
23.70689	4611	4560.3
23.71711	4486	4562.7
23.72722	4625	4566.8
23.73734	4668	4572.6
23.74745	4585	4580.2
23.75767	4509	4589.6
23.76778	4613	4600.8
23.77789	4666	4613.8
23.78801	4577	4628.7
23.79822	4715	4645.7
23.80834	4629	4664.5
23.81845	4638	4685.3
23.82856	4676	4708
23.83878	4768	4733
23.84889	4813	4759.8
23.85901	4911	4788.7
23.86912	4728	4819.6
23.87934	5004	4853
23.88945	4839	4888.2
23.89956	4989	4925.6
23.90968	4986	4965.4
23.91989	5137	5008.1
23.93001	5192	5053.2
23.94012	5287	5100.3
23.95024	5184	5152
23.96045	5328	5208.4
23.97056	5418	5269.1
23.98068	5450	5335.5
23.99079	5476	5407.9
24.00101	5766	5489.6
24.01112	5773	5579.4
24.02123	5955	5679.5
24.03135	5903	5790.9
24.04156	5978	5915.7
24.05168	6004	6051.1
24.06179	6190	6197.5
24.07191	6214	6355.2
24.08212	6401	6523.8
24.09224	6738	6696.5
24.10235	6835	6869.7
24.11246	7070	7037.5
24.12268	6988	7194.3
24.13279	7235	7329.5
24.14291	7256	7438
24.15302	7327	7514.3
24.16323	7286	7555.3
24.17335	7476	7558.7
24.18346	7447	7525.9
24.19358	7165	7459.8
24.20379	7202	7363.2
24.21391	7079	7243.2
24.22402	6977	7104.6
24.23413	6728	6953.3
24.24435	6482	6793.5
24.25446	6532	6633.6
24.26458	6385	6476.6
24.27469	6318	6326.2
24.28491	6160	6183.8
24.29502	6003	6053.8
24.30514	5977	5935.7
24.31525	6000	5829.7
24.32546	5933	5734.6
24.33558	5756	5651.6
24.34569	5696	5579
24.35581	5736	5515.8
24.36602	5568	5460.9
24.37614	5576	5414.6
24.38625	5557	5375.6
24.39637	5416	5343.6
24.40658	5445	5317.8
24.41669	5215	5298.4
24.42681	5256	5284.9
24.43692	5197	5276.8
24.44714	5295	5273.5
24.45725	5141	5274.4
24.46737	5209	5278.4
24.47748	5243	5285.1
24.4877	5267	5291.9
24.49781	5047	5298
24.50793	5127	5302
24.51804	5075	5302.9
24.52825	5094	5299.8
24.53837	5130	5292.8
24.54848	4967	5281.3
24.5586	5141	5266.2
24.56881	5017	5247.9
24.57893	5072	5227.7
24.58904	5019	5206.7
24.59916	5095	5185.9
24.60937	4928	5166.3
24.61949	4930	5149.4
24.6296	4993	5138.2
24.63972	5004	5136.9
24.64993	5174	5140.6
24.66004	5040	5149.5
24.67016	5201	5164.5
24.68027	5212	5184.5
24.69049	5139	5210.4
24.7006	5314	5241.6
24.71072	5317	5278.2
24.72083	5537	5320.2
24.73105	5511	5368
24.74116	5551	5420.9
24.75128	5697	5479.1
24.76139	5673	5543.2
24.77151	5761	5613.3
24.78172	5906	5690.8
24.79184	6040	5773.7
24.80195	6144	5866.2
24.81206	6300	5967.9
24.82228	6509	6081.3
24.83239	6543	6205.1
24.84251	6627	6340.9
24.85262	6840	6491.4
24.86284	7064	6658.4
24.87295	7193	6839.5
24.88307	7247	7036.3
24.89318	7580	7248.5
24.9034	7577	7477.2
24.91351	7843	7715.3
24.92363	8062	7961.1
24.93374	8199	8208.8
24.94396	8286	8453.2
24.95407	8623	8680.4
24.96419	8799	8882.9
24.9743	8929	9050.7
24.98451	9191	9176
24.99463	9151	9249.8
25.00474	9318	9269.8
25.01486	9168	9235.7
25.02507	9214	9148.7
25.03519	9199	9015.3
25.04531	8870	8841.2
25.05542	8667	8634.1
25.06563	8266	8399.6
25.07575	8226	8150.7
25.08586	7984	7892.9
25.09598	7713	7633.9
25.10619	7491	7377.3
25.11631	7067	7133.1
25.12642	6999	6902.6
25.13654	6750	6687.8
25.14675	6638	6488.3
25.15687	6492	6307.1
25.16698	6272	6142
25.1771	6169	5991.7
25.18731	5913	5853.6
25.19743	5717	5728.7
25.20754	5813	5616.3
25.21766	5864	5521.6
25.22787	5582	5433.5
25.23799	5529	5352.9
25.2481	5334	5277.8
25.25822	5122	5207.7
25.26843	5114	5141.3
25.27855	5096	5079.6
25.28866	4966	5021.3
25.29878	4889	4966.4
25.30899	4873	4914
25.31911	4768	4865.2
25.32922	4662	4819.3
25.33934	4646	4776.2
25.34955	4600	4735.4
25.35967	4565	4697.8
25.36978	4530	4662.8
25.3799	4456	4630.4
25.39011	4404	4600.1
25.40023	4483	4572.6
25.41034	4428	4547.4
25.42046	4361	4524.5
25.43067	4275	4503.5
25.44079	4442	4484.8
25.4509	4227	4468
25.46102	4361	4453.2
25.47123	4353	4440
25.48135	4231	4428.6
25.49146	4301	4418.9
25.50158	4303	4410.8
25.51179	4225	4404.1
25.52191	4363	4398.8
25.53202	4307	4394.9
25.54214	4346	4392.3
25.55235	4247	4391
25.56247	4441	4391.1
25.57258	4326	4392.1
25.5827	4352	4394.3
25.59291	4261	4397.5
25.60303	4300	4401.8
25.61314	4354	4407.1
25.62326	4460	4413.6
25.63347	4429	4420.9
25.64359	4323	4429.1
25.6537	4261	4438.2
25.66382	4327	4448.2
25.67403	4401	4459.3
25.68415	4366	4471
25.69427	4376	4483.7
25.70438	4429	4497.2
25.7146	4418	4511.7
25.72471	4376	4527
25.73483	4541	4543.2
25.74494	4535	4560.5
25.75516	4657	4579.2
25.76527	4660	4599
25.77539	4662	4620.2
25.7855	4633	4642
25.79572	4736	4650
25.80583	4717	4660.1
25.81595	4746	4672.4
25.82607	4748	4687.1
25.83628	4743	4704.3
25.8464	4789	4723.6
25.85651	4783	4744.9
25.86662	4905	4767.7
25.87684	4973	4790.7
25.88696	4920	4814.2
25.89707	4994	4836.4
25.90719	5037	4855.9
25.9174	5000	4871.8
25.92752	5129	4882
25.93763	5051	4886.7
25.94775	5015	4885.6
25.95796	5077	4877.3
25.96808	5048	4862.8
25.97819	4909	4842.4
25.98831	5048	4817.1
25.99852	4915	4787.2
26.00864	4851	4754.4
26.01876	4974	4719.7
26.02887	4724	4683.5
26.03909	4705	4646.5
26.0492	4616	4610.5
26.05932	4621	4575.5
26.06943	4590	4542.3
26.07965	4507	4510.7
26.08976	4454	4481.6
26.09988	4460	4454.8
26.10999	4370	4430.1
26.12011	4445	4407.5
26.13033	4388	4386.7
26.14044	4394	4367.8
26.15056	4364	4350.4
26.16067	4271	4334.4
26.17089	4277	4319.6
26.181	4445	4306
26.19112	4452	4293.4
26.20123	4274	4281.7
26.21145	4316	4270.8
26.22157	4248	4261.1
26.23168	4163	4252
26.2418	4244	4243.7
26.25201	4216	4236.1
26.26213	4242	4229.6
26.27224	4183	4223.9
26.28236	4178	4219.2
26.29257	4181	4215.6
26.30269	4222	4212.9
26.31281	4170	4211.2
26.32292	4215	4210.5
26.33314	4298	4210.8
26.34325	4155	4212
26.35337	4275	4214
26.36348	4136	4216.6
26.3737	4210	4225.4
26.38381	4263	4234.5
26.39393	4293	4243.7
26.40405	4198	4252.7
26.41426	4320	4261.4
26.42438	4209	4269.6
26.43449	4356	4277.4
26.44461	4343	4284.6
26.45482	4183	4291.5
26.46494	4316	4298.1
26.47506	4226	4304.6
26.48517	4271	4311.1
26.49539	4197	4318
26.5055	4220	4325.7
26.51562	4401	4333.7
26.52573	4364	4342.6
26.53595	4438	4353
26.54607	4421	4364.3
26.55618	4317	4377.3
26.5663	4326	4392
26.57651	4371	4409
26.58663	4325	4427.9
26.59674	4400	4449.1
26.60686	4482	4473.2
26.61708	4364	4500.1
26.62719	4543	4529.8
26.63731	4515	4562.6
26.64742	4765	4597.9
26.65764	4484	4637.2
26.66776	4680	4679
26.67787	4682	4723
26.68799	4683	4768.7
26.6982	4814	4815.3
26.70832	4895	4861.6
26.71843	4899	4906.6
26.72855	4931	4949.3
26.73877	4968	4989.1
26.74888	4913	5024.6
26.759	5031	5055.5
26.76911	5098	5081.5
26.77933	4923	5102.5
26.78944	4882	5118.7
26.79956	5134	5128.7
26.80968	4975	5133.4
26.81989	4955	5132.9
26.83001	4997	5127.7
26.84012	5099	5118.6
26.85024	5025	5106.4
26.86046	5077	5092.3
26.87057	5008	5077.2
26.88069	5069	5062.3
26.8908	5001	5048.6
26.90102	4883	5036.8
26.91113	4935	5027.9
26.92125	5009	5022.3
26.93137	5188	5020.1
26.94158	5127	5021.3
26.9517	4949	5021.9
26.96181	5141	5024.1
26.97193	5161	5027.4
26.98215	5140	5030.3
26.99226	5069	5031.3
27.00238	5088	5029
27.0125	4986	5022.1
27.02271	5171	5009.8
27.03283	5081	4991.2
27.04294	5185	4966.4
27.05306	5121	4935.7
27.06328	4999	4899.4
27.07339	4892	4858.7
27.08351	4927	4814.4
27.09362	4889	4767.6
27.10384	4717	4718.4
27.11396	4752	4668.9
27.12407	4837	4619.6
27.13419	4548	4571.3
27.14441	4575	4524.2
27.15452	4431	4479.8
27.16464	4475	4437.8
27.17475	4481	4398.5
27.18497	4354	4361.5
27.19509	4321	4327.4
27.2052	4347	4295.8
27.21532	4317	4266.4
27.22553	4190	4238.9
27.23565	4225	4213.4
27.24577	4186	4189.5
27.25588	4189	4167.1
27.2661	4259	4145.7
27.27621	4048	4126
27.28633	4160	4106.8
27.29645	4135	4087.4
27.30656	4111	4070
27.31678	4087	4053.1
27.3269	3914	4037.1
27.33701	3920	4021.7
27.34713	3934	4007.1
27.35734	3966	3992.1
27.36746	3911	3978.5
27.37758	3968	3964.6
27.3877	3891	3952
27.39791	3830	3939.8
27.40803	3848	3928.2
27.41814	3854	3917
27.42826	3845	3904.5
27.43847	3802	3893.8
27.44859	3838	3884
27.45871	3868	3874.6
27.46882	3816	3865.6
27.47904	3754	3856.9
27.48915	3811	3847.7
27.49927	3866	3839.7
27.50939	3817	3832.1
27.51961	3873	3824.7
27.52972	3866	3819.3
27.53984	3964	3814.6
27.54995	3783	3810.2
27.56017	3845	3806.1
27.57029	3856	3802.2
27.5804	3790	3798.5
27.59052	3780	3795.1
27.60074	3771	3791.8
27.61085	3796	3788.8
27.62097	3728	3786
27.63109	3772	3783.5
27.6413	3822	3781.1
27.65142	3940	3778.9
27.66154	3785	3777
27.67165	3858	3775.4
27.68187	3759	3773.9
27.69198	3769	3772.7
27.7021	3901	3771.8
27.71222	3795	3771.2
27.72243	3704	3770.8
27.73255	3805	3770.8
27.74267	3795	3771
27.75278	3714	3771.5
27.763	3731	3772.2
27.77312	3840	3773.1
27.78323	3757	3774.2
27.79335	3791	3775.3
27.80357	3710	3776.3
27.81368	3879	3777.2
27.8238	3764	3777.9
27.83392	3777	3778.3
27.84413	3835	3778.3
27.85425	3828	3778
27.86436	3754	3777.2
27.87448	3687	3776.2
27.8847	3763	3774.8
27.89481	3807	3773.2
27.90493	3848	3771.5
27.91505	3705	3769.8
27.92526	3684	3768
27.93538	3662	3766.4
27.9455	3762	3765
27.95561	3771	3763.8
27.96583	3793	3763.3
27.97595	3795	3762.8
27.98606	3818	3762.7
27.99618	3733	3762.9
28.0064	3665	3763.4
28.01651	3777	3764.1
28.02663	3772	3764.9
28.03675	3704	3765.9
28.04696	3723	3766.6
28.05708	3751	3767.2
28.0672	3760	3767.4
28.07731	3780	3767.2
28.08753	3797	3766.6
28.09765	3754	3765.6
28.10777	3723	3762.5
28.11788	3843	3758.2
28.1281	3795	3753.7
28.13821	3682	3749.1
28.14833	3633	3744.2
28.15845	3782	3739.3
28.16866	3691	3734.4
28.17878	3810	3729.7
28.1889	3592	3725.1
28.19901	3694	3720.7
28.20923	3633	3716.5
28.21935	3650	3712.7
28.22947	3656	3709.2
28.23958	3737	3705.9
28.2498	3673	3703
28.25991	3750	3700.4
28.27003	3757	3698.2
28.28015	3634	3696.2
28.29037	3778	3694.5
28.30048	3753	3693.1
28.3106	3667	3692.1
28.32072	3668	3691.4
28.33093	3661	3691
28.34105	3683	3691
28.35117	3644	3691.3
28.36128	3713	3692.1
28.3715	3724	3693.5
28.38162	3712	3691.7
28.39174	3845	3694
28.40185	3787	3696.9
28.41207	3779	3700.3
28.42219	3766	3704.4
28.4323	3792	3708.9
28.44242	3768	3712.2
28.45264	3687	3717.6
28.46275	3798	3723.2
28.47287	3789	3728.9
28.48299	3772	3735.1
28.4932	3858	3740.4
28.50332	3745	3745.2
28.51344	3883	3749.4
28.52356	3751	3752.8
28.53377	3787	3755.6
28.54389	3700	3757.6
28.55401	3803	3759
28.56413	3692	3760.2
28.57434	3770	3760.7
28.58446	3786	3760.9
28.59457	3673	3761
28.60469	3793	3761.2
28.61491	3706	3761.7
28.62502	3867	3762.5
28.63514	3808	3763.7
28.64526	3915	3765.6
28.65538	3656	3768.3
28.66559	3809	3771.9
28.67571	3776	3776.5
28.68583	3786	3783.2
28.69594	3911	3791.7
28.70616	3607	3801.7
28.71628	3764	3813.2
28.7264	3848	3825.8
28.73652	3901	3840.1
28.74673	3795	3856.3
28.75685	3883	3873.4
28.76696	3890	3893
28.77708	3949	3914.6
28.7873	3915	3938.3
28.79742	3943	3963.7
28.80753	3953	3990.5
28.81765	4022	4018.4
28.82787	4024	4047.8
28.83799	4120	4077.2
28.8481	4115	4106.2
28.85822	4130	4133.9
28.86844	4201	4159.8
28.87856	4167	4182.5
28.88867	4200	4201.7
28.89879	4150	4216.9
28.90901	4296	4228.1
28.91912	4141	4235.2
28.92924	4283	4238.7
28.93936	4127	4239.2
28.94958	4294	4237.2
28.95969	4046	4233.6
28.96981	4103	4229.1
28.97993	4097	4224.5
28.99014	4218	4220.5
29.00026	4255	4217.8
29.01038	4151	4217
29.0205	4095	4218.4
29.03071	4131	4222.2
29.04083	4136	4228.1
29.05095	4123	4235.9
29.06107	4153	4244.9
29.07128	4192	4254.3
29.0814	4188	4263.2
29.09152	4159	4270.5
29.10163	4323	4275.6
29.11185	4277	4277.7
29.12197	4239	4276.5
29.13209	4363	4271.7
29.14221	4254	4263.3
29.15242	4298	4251
29.16254	4193	4235.9
29.17266	4287	4217.9
29.18277	4130	4197.3
29.19299	4222	4174.3
29.20311	4166	4149.7
29.21323	4256	4123.8
29.22334	4202	4097.4
29.23356	4066	4070.6
29.24368	4011	4039.2
29.2538	4017	4013.9
29.26391	4019	3991.1
29.27413	3947	3971
29.28425	3911	3952.7
29.29436	3943	3935.9
29.30448	3863	3918.2
29.3147	3850	3904.7
29.32482	3791	3893
29.33494	3767	3882.9
29.34505	3740	3874.5
29.35527	3902	3867.5
29.36539	3929	3862.1
29.37551	3892	3858.1
29.38562	3706	3855.6
29.39584	3828	3854.3
29.40596	3822	3854.4
29.41608	3725	3855.8
29.4262	3852	3858.6
29.43641	3831	3862.9
29.44653	3911	3868.6
29.45665	3841	3875.9
29.46677	3865	3885
29.47698	3865	3896.1
29.4871	4031	3909.1
29.49722	4022	3924.2
29.50734	4032	3941.7
29.51755	4023	3962.5
29.52767	4006	3984.5
29.53779	4021	4008.7
29.54791	4162	4034.7
29.55812	4127	4062.4
29.56824	4234	4090.7
29.57836	4348	4119
29.58848	4345	4147
29.59869	4241	4173.1
29.60881	4392	4196.4
29.61893	4639	4216.4
29.62905	4362	4232.5
29.63927	4406	4244.2
29.64938	4413	4251.1
29.6595	4442	4253.3
29.66962	4373	4250.7
29.67984	4272	4243.4
29.68995	4344	4232
29.70007	4205	4216.8
29.71019	4276	4198.4
29.72041	4284	4177.2
29.73053	4136	4154.3
29.74064	4263	4130.3
29.75076	4298	4105.8
29.76098	4143	4081.2
29.7711	4003	4057.3
29.78122	4025	4034.4
29.79133	4016	4012.8
29.80155	3991	3992.5
29.81167	4053	3974.1
29.82179	3937	3957.5
29.83191	3802	3942.8
29.84202	3853	3926.6
29.85224	3884	3906.2
29.86236	3837	3887.7
29.87247	3806	3870.9
29.88259	3755	3855.8
29.89281	3735	3842.2
29.90293	3741	3830.2
29.91305	3749	3819.9
29.92317	3773	3811
29.93338	3661	3803.6
29.9435	3663	3797.8
29.95362	3687	3793.5
29.96374	3704	3790.7
29.97396	3735	3789.1
29.98407	3694	3788.6
29.99419	3774	3789.2
30.00431	3653	3790.2
30.01453	3666	3791.4
30.02464	3699	3792.3
30.03476	3787	3792.5
30.04488	3672	3791.5
30.0551	3856	3789
30.06522	3735	3784.6
30.07533	3711	3778.4
30.08545	3731	3770.3
30.09567	3795	3760.3
30.10579	3716	3748.8
30.11591	3649	3735.9
30.12603	3617	3722
30.13624	3546	3707.2
30.14636	3704	3692
30.15648	3602	3676.7
30.1666	3752	3661.5
30.17682	3626	3646.5
30.18694	3667	3632.3
30.19705	3663	3619.1
30.20717	3684	3606.9
30.21739	3486	3595.1
30.22751	3641	3585.4
30.23763	3658	3577.1
30.24775	3619	3570.2
30.25796	3602	3564.6
30.26808	3582	3560.7
30.2782	3601	3558
30.28832	3514	3557.1
30.29853	3481	3558
30.30865	3679	3560.6
30.31877	3612	3565.1
30.32889	3581	3571.5
30.33911	3603	3580.2
30.34923	3691	3590.9
30.35934	3674	3603.7
30.36946	3676	3618.5
30.37968	3645	3635.4
30.3898	3675	3653.8
30.39992	3690	3673.4
30.41004	3786	3693.7
30.42025	3767	3715.7
30.43037	3773	3740.9
30.44049	3704	3764.2
30.45061	3837	3784.8
30.46083	3757	3802.1
30.47095	3922	3814.9
30.48106	3839	3823
30.49118	3844	3826.2
30.5014	3885	3824.4
30.51152	3952	3818
30.52164	3889	3807.5
30.53176	3764	3793.3
30.54197	3851	3776.1
30.55209	3735	3756.7
30.56221	3623	3735.6
30.57233	3803	3713.7
30.58255	3670	3691.3
30.59267	3588	3669.5
30.60278	3634	3648.7
30.6129	3633	3629.4
30.62312	3612	3611.9
30.63324	3668	3596.8
30.64336	3610	3584.3
30.65348	3612	3574.4
30.6637	3501	3567
30.67381	3591	3562.7
30.68393	3498	3560.4
30.69405	3569	3560.3
30.70427	3549	3562.2
30.71439	3572	3565.5
30.7245	3438	3569.9
30.73462	3641	3574.9
30.74484	3596	3580.1
30.75496	3543	3585.1
30.76508	3436	3589
30.7752	3490	3591.8
30.78542	3595	3593.2
30.79553	3495	3593.2
30.80565	3482	3591.9
30.81577	3574	3589.3
30.82599	3424	3585.6
30.83611	3451	3581.1
30.84623	3568	3576.1
30.85635	3464	3570.9
30.86656	3567	3565.8
30.87668	3465	3561.1
30.8868	3501	3557.3
30.89692	3580	3554.7
30.90714	3526	3553.6
30.91726	3528	3554.4
30.92738	3505	3557.3
30.9375	3584	3562.6
30.94771	3566	3570.6
30.95783	3600	3581.5
30.96795	3557	3595.3
30.97807	3668	3612.1
30.98829	3688	3632.1
30.99841	3712	3655.3
31.00853	3672	3683.7
31.01865	3670	3714.3
31.02886	3782	3746.6
31.03898	3843	3779.4
31.0491	3844	3811.4
31.05922	3801	3842.9
31.06934	3950	3872.2
31.07956	4010	3898.5
31.08968	3823	3920.6
31.0998	4012	3938
31.10991	3915	3950.6
31.12013	4017	3957.8
31.13025	4056	3960.2
31.14037	3990	3957.6
31.15049	3977	3951.3
31.16071	3904	3941.4
31.17083	4031	3928.8
31.18095	3964	3914.1
31.19106	3884	3898.2
31.20128	3877	3881.9
31.2114	3907	3865.7
31.22152	3871	3850.9
31.23164	3906	3837.9
31.24186	3831	3827.3
31.25198	3884	3819.8
31.2621	3857	3815.7
31.27222	3947	3815.2
31.28243	3866	3818.7
31.29255	3927	3826
31.30267	3760	3837
31.31279	3926	3851.3
31.32301	3837	3868.7
31.33313	4040	3888.2
31.34325	3930	3908.3
31.35337	3926	3929.6
31.36359	4055	3950.3
31.3737	3959	3969
31.38383	3939	3984.9
31.39394	4033	3997.2
31.40416	4047	4005.5
31.41428	4087	4008.8
31.4244	4021	4008
31.43452	4083	4003.1
31.44474	3952	3994.4
31.45486	4048	3982.6
31.46498	3933	3968.3
31.4751	3940	3952.2
31.48532	3922	3935
31.49544	3871	3917.3
31.50555	3872	3900
31.51567	3879	3883.7
31.52589	3909	3869
31.53601	3777	3856.6
31.54613	3767	3846.9
31.55625	3813	3840
31.56647	3838	3836
31.57659	3812	3834.3
31.58671	3723	3829.3
31.59683	3792	3826.2
31.60704	3817	3824.4
31.61716	3871	3822.8
31.62729	3865	3820.9
31.6374	3708	3817.9
31.64762	3781	3813.2
31.65774	3716	3806.5
31.66786	3745	3797.5
31.67798	3821	3786.5
31.6882	3866	3773.1
31.69832	3673	3757.9
31.70844	3763	3741.1
31.71856	3706	3723.2
31.72878	3669	3704.4
31.7389	3623	3685.6
31.74901	3677	3667
31.75913	3596	3649.2
31.76935	3606	3632.4
31.77947	3501	3617.6
31.78959	3551	3604.9
31.79971	3512	3594.7
31.80993	3532	3587.1
31.82005	3482	3582.4
31.83017	3624	3580.4
31.84029	3498	3581.1
31.85051	3507	3583.9
31.86063	3543	3588.5
31.87075	3684	3594.2
31.88087	3609	3600.1
31.89108	3697	3605.5
31.9012	3553	3609.3
31.91132	3709	3610.9
31.92144	3625	3609.6
31.93166	3709	3604.6
31.94178	3717	3595.9
31.9519	3694	3583.3
31.96202	3583	3566.8
31.97224	3692	3546.6
31.98236	3618	3523.4
31.99248	3503	3497.5
32.0026	3539	3469.3
32.01281	3464	3439.1
32.02293	3486	3407.8
32.03305	3525	3375.8
32.04317	3321	3343.5
32.05339	3305	3311.1
32.06351	3312	3279.6
32.07364	3285	3249.1
32.08376	3280	3219.7
32.09398	3196	3191.6
32.1041	3273	3165.2
32.11421	3209	3140.4
32.12433	3156	3117.2
32.13455	3045	3095.3
32.14467	3041	3075
32.15479	3011	3056
32.16491	3053	3041.2
32.17513	2909	3027.6
32.18525	3184	3015
32.19537	3020	3003.3
32.20549	3027	2992.4
32.21571	2953	2982.1
32.22583	2873	2972.7
32.23595	3082	2963.8
32.24607	2852	2955.6
32.25629	2871	2947.8
32.2664	3010	2940.6
32.27652	2955	2933.9
32.28664	3031	2927.7
32.29686	2824	2921.9
32.30698	2889	2916.7
32.3171	2909	2911.9
32.32722	2824	2907.6
32.33744	2842	2903.7
32.34756	2902	2900.3
32.35769	2864	2897.4
32.36781	2776	2894.9
32.37803	2893	2892.8
32.38814	2876	2891.2
32.39826	2839	2890.1
32.40838	2835	2889.3
32.4185	2763	2889.1
32.42872	2796	2889.6
32.43884	2828	2890.3
32.44896	2820	2891.3
32.45918	2807	2893
32.4693	2924	2895.1
32.47942	2892	2897.7
32.48954	2872	2901
32.49966	2907	2904.9
32.50988	2911	2909.7
32.52	3010	2915.1
32.53012	2943	2921.4
32.54024	2935	2928.9
32.55046	2943	2938
32.56058	2933	2947.3
32.5707	2896	2957.7
32.58082	2878	2969.2
32.59104	3036	2982.1
32.60116	2983	2995.9
32.61128	3093	3010.6
32.6214	3079	3026.3
32.63162	3004	3042.9
32.64174	3065	3059
32.65186	3087	3074.9
32.66198	3172	3090.1
32.6722	3094	3104.2
32.68232	3178	3116.7
32.69244	3100	3127.4
32.70256	3127	3136
32.71278	3186	3142.7
32.7229	3053	3147.2
32.73302	3088	3149.7
32.74314	3116	3147.4
32.75336	3062	3142.9
32.76348	3156	3136.9
32.7736	3087	3129.5
32.78372	3083	3121
32.79394	3055	3111.3
32.80406	3010	3101
32.81418	3126	3090
32.8243	3143	3078.7
32.83452	3056	3067.1
32.84464	2965	3055.7
32.85476	3078	3044.5
32.86488	3026	3033.6
32.8751	2932	3022.9
32.88522	2980	3012.8
32.89534	2938	3003.2
32.90546	2995	2994.1
32.91568	3024	2985.6
32.9258	3056	2977.7
32.93592	2953	2970.7
32.94604	2979	2964.5
32.95626	2987	2959.1
32.96638	2931	2954.6
32.9765	3088	2951
32.98662	2968	2948.5
32.99684	2900	2947
33.00696	2993	2946.6
33.01708	3045	2947.5
33.0272	2920	2949.6
33.03742	3051	2953.1
33.04754	2998	2958
33.05766	3025	2964.3
33.06778	3094	2972.2
33.078	3035	2981.7
33.08812	3056	2992.7
33.09824	3189	3005.3
33.10836	3143	3019.5
33.11858	3176	3035.3
33.1287	3203	3052.4
33.13882	3254	3070.9
33.14895	3094	3090.7
33.15917	3264	3111.8
33.16928	3132	3133.6
33.17941	3271	3156
33.18953	3245	3178.8
33.19975	3283	3201.7
33.20987	3278	3223.9
33.21999	3295	3244.8
33.23011	3354	3264
33.24033	3348	3280.8
33.25045	3439	3294.4
33.26057	3387	3304.4
33.27069	3320	3310.5
33.28091	3389	3312.5
33.29103	3249	3310.5
33.30115	3312	3304.6
33.31127	3277	3295.2
33.32149	3299	3285.3
33.33161	3283	3274.3
33.34173	3187	3261.2
33.35185	3097	3246.6
33.36207	3146	3230.8
33.37219	3138	3214.4
33.38232	3158	3197.6
33.39244	3126	3180.8
33.40266	3136	3163.9
33.41278	3054	3147.9
33.42289	2987	3132.7
33.43302	3095	3118.4
33.44324	3073	3105.1
33.45336	3090	3092.9
33.46348	2948	3081.6
33.4736	2989	3071.2
33.48382	3042	3061.3
33.49394	2973	3051.5
33.50406	2971	3041.6
33.51418	3045	3031.1
33.5244	2932	3019.7
33.53452	2959	3007.4
33.54465	2950	2993.4
33.55476	2896	2978.6
33.56498	2916	2962.7
33.5751	2915	2945.8
33.58522	2909	2928.1
33.59535	2896	2909.7
33.60547	2848	2890.7
33.61569	2828	2871.2
33.62581	2834	2851.3
33.63593	2776	2831.5
33.64615	2727	2811.5
33.65627	2770	2791.8
33.66639	2747	2772.5
33.67651	2674	2753.4
33.68663	2652	2735
33.69685	2695	2716.8
33.70697	2635	2699.4
33.71709	2686	2682.7
33.72721	2650	2666.6
33.73744	2554	2651.2
33.74756	2610	2636.6
33.75768	2640	2622.8
33.7678	2557	2609.7
33.77802	2578	2597.1
33.78814	2562	2585.3
33.79826	2546	2574.2
33.80838	2494	2563.7
33.8186	2547	2553.7
33.82872	2575	2544.5
33.83884	2505	2535.9
33.84896	2538	2527.8
33.85919	2534	2520.3
33.86931	2547	2513.5
33.87943	2540	2507.2
33.88955	2641	2501.5
33.89977	2466	2495.5
33.90989	2581	2489.6
33.92001	2510	2484.2
33.93013	2577	2479.3
33.94036	2490	2474.9
33.95047	2570	2471
33.96059	2428	2467.6
33.97072	2335	2464.7
33.98094	2466	2462.2
33.99106	2411	2460.2
34.00118	2519	2458.7
34.0113	2535	2457.7
34.02152	2470	2457.1
34.03164	2514	2457
34.04177	2494	2457.3
34.05189	2600	2458.1
34.06211	2431	2459.4
34.07223	2500	2461.2
34.08235	2542	2463.3
34.09247	2457	2465.5
34.10269	2511	2468.6
34.11281	2550	2472.2
34.12293	2493	2476.2
34.13305	2589	2480.7
34.14328	2481	2485.7
34.1534	2505	2491.2
34.16352	2551	2497.1
34.17364	2501	2503.5
34.18386	2538	2510.9
34.19398	2530	2519
34.2041	2540	2528
34.21422	2572	2537.8
34.22444	2611	2548.9
34.23457	2672	2561.1
34.24469	2631	2574.6
34.25481	2675	2589.9
34.26503	2675	2606.9
34.27515	2600	2625.8
34.28527	2597	2646.7
34.29539	2636	2669.7
34.30561	2640	2695.4
34.31573	2695	2722.8
34.32586	2620	2752.1
34.33598	2794	2783.2
34.3462	2798	2815.8
34.35632	2852	2848.6
34.36644	2765	2881.2
34.37656	2822	2912.6
34.38678	2876	2942
34.3969	2936	2967.9
34.40703	2969	2989.5
34.41715	3006	3006.1
34.42737	2895	3017.2
34.43749	3004	3022.3
34.44761	3055	3021.5
34.45773	2942	3015.1
34.46796	3028	3003.3
34.47807	2882	2988.3
34.4882	2941	2970.2
34.49832	2934	2948.5
34.50854	2962	2923.7
34.51866	2850	2896.7
34.52878	2808	2868.1
34.53891	2874	2838.4
34.54913	2758	2808
34.55925	2787	2778.1
34.56937	2765	2748.6
34.57949	2737	2720.5
34.58971	2673	2693.6
34.59983	2737	2668.7
34.60995	2711	2645.6
34.62008	2651	2624.5
34.63029	2570	2605
34.64042	2565	2587.7
34.65054	2619	2571.9
34.66066	2522	2557.9
34.67088	2509	2545.2
34.68101	2553	2533.9
34.69113	2562	2523.8
34.70125	2611	2514.8
34.71147	2599	2506.7
34.72159	2604	2499.4
34.73171	2547	2493.1
34.74183	2525	2487.4
34.75206	2493	2482.4
34.76218	2546	2478.2
34.7723	2539	2474.7
34.78242	2514	2471.9
34.79264	2494	2469.6
34.80276	2537	2467.8
34.81289	2499	2466.6
34.82301	2510	2465.6
34.83323	2494	2464.9
34.84335	2456	2464.3
34.85347	2450	2463.6
34.86359	2418	2462.7
34.87371	2405	2461.5
34.88394	2403	2459.9
34.89406	2348	2457.8
34.90418	2431	2455.2
34.9143	2393	2452.2
34.92453	2360	2448.7
34.93465	2458	2444.9
34.94477	2397	2440.7
34.95489	2357	2436.3
34.96511	2353	2431.8
34.97523	2363	2427.2
34.98536	2386	2422.8
34.99548	2384	2418.5
35.0057	2338	2414.5
35.01582	2319	2410.2
35.02594	2365	2406.9
35.03606	2380	2404.1
35.04629	2372	2401.9
35.05641	2302	2399.1
35.06653	2396	2395.7
35.07665	2378	2392.8
35.08688	2304	2390.4
35.097	2368	2388.4
35.10712	2399	2387.1
35.11724	2361	2386.4
35.12746	2309	2386.1
35.13758	2377	2386.4
35.14771	2350	2387.2
35.15783	2355	2388.5
35.16805	2395	2390.4
35.17817	2356	2392.7
35.18829	2426	2395.5
35.19842	2486	2398.9
35.20864	2434	2402.5
35.21876	2399	2406.2
35.22888	2437	2410
35.239	2408	2413.9
35.24922	2482	2417.6
35.25935	2441	2421
35.26947	2490	2424.1
35.27959	2523	2426.9
35.28981	2520	2429
35.29993	2510	2430.6
35.31006	2424	2431.6
35.32018	2447	2431.9
35.3304	2505	2431.5
35.34052	2461	2430.1
35.35065	2517	2428.3
35.36077	2550	2425.7
35.37099	2536	2422.3
35.38111	2592	2418.3
35.39123	2430	2413.6
35.40136	2547	2408.4
35.41158	2450	2402.6
35.4217	2466	2396.3
35.43182	2356	2389.9
35.44194	2498	2383.3
35.45217	2491	2376.6
35.46229	2418	2369.9
35.47241	2446	2363.5
35.48254	2400	2357.2
35.49276	2402	2351.3
35.50288	2364	2345.9
35.513	2389	2341
35.52312	2367	2336.8
35.53334	2460	2333.3
35.54346	2361	2330.8
35.55359	2338	2329.1
35.56371	2353	2328.5
35.57393	2366	2329
35.58406	2306	2330.7
35.59418	2304	2333.7
35.6043	2330	2338.1
35.61452	2340	2343.8
35.62465	2297	2350.7
35.63477	2249	2358.8
35.64489	2304	2368.1
35.65511	2355	2378.4
35.66523	2389	2389.2
35.67536	2400	2400
35.68548	2313	2411.2
35.6957	2297	2422
35.70582	2392	2431.7
35.71595	2434	2439.7
35.72607	2374	2446.2
35.73629	2321	2450.8
35.74641	2327	2452.8
35.75654	2393	2452
35.76666	2439	2449
35.77688	2392	2443.6
35.787	2295	2436.1
35.79713	2419	2426.5
35.80725	2370	2415.3
35.81747	2301	2402.6
35.82759	2317	2388.9
35.83772	2305	2374.3
35.84784	2275	2359
35.85806	2290	2343.2
35.86818	2282	2327.5
35.87831	2314	2312.1
35.88843	2264	2297
35.89865	2266	2282.4
35.90877	2184	2268.7
35.9189	2254	2255.8
35.92902	2188	2243.8
35.93924	2250	2232.6
35.94936	2210	2222.3
35.95949	2195	2212.8
35.96961	2311	2204
35.97983	2298	2195.7
35.98996	2248	2187.9
36.00008	2237	2180.5
36.0102	2225	2173.7
36.02042	2121	2166.2
36.03054	2267	2159.6
36.04066	2192	2153.3
36.05079	2203	2147.1
36.06091	2207	2141.2
36.07113	2201	2135.4
36.08126	2105	2129.9
36.09138	2187	2124.7
36.1016	2084	2119.4
36.11172	2131	2114.7
36.12185	2195	2110.4
36.13197	2157	2106.4
36.14209	2187	2102.8
36.15232	2144	2099.6
36.16244	2188	2097
36.17256	2182	2094.8
36.18269	2131	2093.1
36.19291	2134	2092
36.20303	2076	2091.4
36.21315	2111	2092.3
36.22328	2095	2096.1
36.2335	2145	2100.6
36.24362	2087	2105.5
36.25375	2127	2110.8
36.26387	2170	2116.6
36.27409	2152	2122.6
36.28421	2090	2128.8
36.29433	2169	2134.7
36.30446	2178	2140.9
36.31468	2156	2146.8
36.32481	2250	2152.3
36.33493	2155	2157.4
36.34505	2176	2161.8
36.35527	2214	2165.8
36.3654	2108	2169
36.37552	2129	2171.6
36.38564	2197	2173.8
36.39587	2137	2175.7
36.40599	2119	2177.2
36.41611	2106	2178.5
36.42624	2185	2179.7
36.43645	2140	2180.9
36.44658	2152	2182.2
36.4567	2081	2183.8
36.46683	2109	2185.7
36.47705	2175	2188.2
36.48717	2079	2191.3
36.4973	2176	2195.2
36.50742	2111	2199.9
36.51764	2126	2205.6
36.52777	2075	2212.2
36.53789	2149	2219.9
36.54801	2249	2228.7
36.55823	2179	2238.6
36.56836	2236	2249.2
36.57848	2193	2260.7
36.5886	2171	2272.9
36.59883	2282	2285.3
36.60895	2265	2298.2
36.61908	2193	2311.1
36.6292	2308	2323.7
36.63942	2311	2335.8
36.64954	2262	2347
36.65967	2373	2357.2
36.66979	2309	2366.4
36.68002	2392	2374.6
36.69014	2352	2381.5
36.70026	2362	2387.6
36.71038	2271	2392.9
36.7206	2393	2397.4
36.73073	2368	2401.2
36.74085	2364	2404.4
36.75098	2369	2407
36.7612	2378	2409
36.77132	2431	2410.5
36.78145	2344	2411.4
36.79157	2310	2411
36.80179	2283	2406.5
36.81191	2370	2401.4
36.82204	2348	2395.6
36.83216	2422	2389.1
36.84238	2393	2381.8
36.85251	2454	2373.8
36.86263	2431	2365
36.87276	2491	2355.3
36.88298	2474	2344.7
36.8931	2479	2333.3
36.90322	2369	2321.1
36.91335	2415	2308.1
36.92357	2377	2294.4
36.9337	2330	2280.2
36.94382	2278	2265.9
36.95394	2310	2251
36.96416	2339	2235.9
36.97429	2277	2220.9
36.98441	2350	2206.1
36.99454	2299	2191.4
37.00476	2214	2176.9
37.01488	2259	2162.9
37.02501	2172	2149.4
37.03513	2227	2136.5
37.04535	2197	2124
37.05548	2126	2112.3
37.0656	2136	2101.2
37.07572	2225	2090.8
37.08595	2075	2080.9
37.09607	2149	2071.8
37.10619	2078	2063.3
37.11632	2066	2055.4
37.12654	2111	2048.1
37.13667	2077	2041.4
37.14679	2023	2035.2
37.15691	2063	2029.4
37.16714	2062	2024.1
37.17726	1993	2019.3
37.18739	2065	2014.9
37.19751	2063	2010.9
37.20773	2016	2007.2
37.21785	2024	2003.9
37.22798	2028	2000.9
37.2381	1947	1998.3
37.24833	2057	1996.1
37.25845	1970	1994.2
37.26857	2018	1992.7
37.2787	2042	1991.5
37.28892	1955	1990.7
37.29905	1927	1990.4
37.30917	1927	1990.4
37.31929	1960	1990.9
37.32952	1901	1991.7
37.33964	2043	1993
37.34976	1948	1994.8
37.35989	1956	1997
37.37011	1932	1999.4
37.38023	2128	1998.9
37.39036	2023	1998.9
37.40048	2043	1999.4
37.41071	1978	2000.4
37.42083	2012	2001.9
37.43095	1932	2003.6
37.44108	1991	2006.2
37.4513	2036	2009.3
37.46143	2026	2012.9
37.47155	1919	2017.2
37.48167	1986	2022
37.4918	1997	2027.5
37.50202	2019	2033.7
37.51215	2019	2040.6
37.52227	2036	2048.1
37.53249	2038	2056.6
37.54262	2140	2065.8
37.55274	2002	2076
37.56287	2024	2087.3
37.57299	2045	2099.7
37.58321	2102	2113.4
37.59333	2152	2128.4
37.60346	2153	2144.7
37.61359	2231	2162.6
37.62381	2110	2182.2
37.63393	2188	2203.4
37.64406	2143	2226.3
37.65418	2308	2251.1
37.66441	2307	2277.9
37.67453	2297	2306.1
37.68465	2301	2336
37.69478	2350	2367.4
37.705	2389	2400.3
37.71513	2459	2433.9
37.72525	2384	2468.2
37.73537	2577	2503.1
37.7456	2575	2538.5
37.75572	2600	2573.6
37.76585	2599	2608.4
37.77597	2598	2642.8
37.78619	2663	2676.9
37.79632	2530	2709.7
37.80645	2557	2741.1
37.81657	2577	2770.7
37.82679	2708	2798.1
37.83692	2781	2822
37.84704	2612	2841.9
37.85716	2793	2857
37.86739	2743	2866.8
37.87751	2950	2870.4
37.88764	2822	2867.5
37.89776	2742	2858.1
37.90799	2811	2842
37.91811	2772	2820
37.92823	2767	2792.3
37.93836	2742	2759.5
37.94859	2776	2721.9
37.95871	2673	2692.4
37.96883	2655	2660.3
37.97895	2530	2625.7
37.98918	2624	2588.8
37.9993	2659	2550.9
38.00943	2456	2512.3
38.01955	2596	2473.6
38.02978	2503	2435
38.0399	2466	2397.8
38.05003	2433	2361.9
38.06015	2337	2327.8
38.07038	2393	2294.9
38.0805	2300	2265.3
38.09063	2307	2238.1
38.10075	2295	2213.4
38.11097	2297	2191.1
38.1211	2203	2171.6
38.13122	2194	2154.3
38.14135	2312	2139.3
38.15157	2139	2126.1
38.1617	2138	2114.7
38.17182	2177	2105
38.18195	2151	2096.8
38.19217	2150	2089.5
38.20229	2109	2083.1
38.21242	2101	2077.2
38.22254	2080	2071.7
38.23277	2120	2066.1
38.24289	2066	2060.5
38.25302	2072	2054.8
38.26314	2106	2048.7
38.27337	2001	2042.2
38.28349	2063	2035.4
38.29361	2016	2028.2
38.30374	2076	2020.8
38.31396	1998	2013
38.32409	2012	2005.1
38.33421	2059	1997.2
38.34434	2028	1989.3
38.35456	2033	1981.1
38.36469	1969	1973.4
38.37481	1996	1966
38.38494	1968	1958.9
38.39516	1980	1952.2
38.40528	1969	1946
38.41541	1965	1940.3
38.42554	1980	1935.2
38.43576	1997	1930.6
38.44588	1912	1926.6
38.45601	1936	1923.3
38.46614	1908	1920.6
38.47636	1904	1918.4
38.48648	1863	1916.8
38.49661	1852	1915.7
38.50673	1868	1915.2
38.51696	1841	1915
38.52708	1869	1915.4
38.53721	1873	1913.1
38.54733	1937	1910.7
38.55756	1886	1908.8
38.56768	1917	1907.4
38.57781	1951	1906.4
38.58794	1973	1905.9
38.59816	1864	1905.9
38.60828	1844	1906.4
38.61841	1798	1907.5
38.62853	1875	1909.1
38.63876	1898	1911.2
38.64888	1820	1914
38.65901	1906	1917.3
38.66913	1840	1921.2
38.67926	1946	1925.7
38.68948	1898	1930.7
38.69961	1936	1936.3
38.70973	1894	1942.1
38.71996	1909	1948.4
38.73008	2056	1954.8
38.74021	2025	1961.3
38.75033	2039	1967.8
38.76046	2017	1974.2
38.77068	2037	1980.4
38.78081	2002	1986.4
38.79093	1949	1992.1
38.80106	2057	1997.4
38.81128	2015	2002.4
38.82141	2005	2007.2
38.83154	2028	2011.7
38.84166	2040	2016.1
38.85188	2132	2020.4
38.86201	2010	2024.6
38.87214	2021	2028.7
38.88226	1945	2032.9
38.89248	2000	2037
38.90261	1968	2041
38.91273	2028	2044.8
38.92286	2073	2048.4
38.93308	2040	2051.8
38.94321	1996	2054.7
38.95333	1971	2057.1
38.96346	1940	2059
38.97369	1980	2060.4
38.98381	2037	2061.2
38.99394	1997	2061.5
39.00406	1995	2061.3
39.01429	2089	2060.6
39.02441	1944	2059.7
39.03454	2040	2058.5
39.04466	2082	2057.2
39.05489	2032	2055.8
39.06501	2064	2054.5
39.07514	1955	2053.3
39.08527	2038	2052.4
39.09549	1974	2051.7
39.10561	1989	2051.3
39.11574	2078	2048.7
39.12587	2070	2045.6
39.13609	2061	2042.9
39.14621	2063	2040.4
39.15634	1998	2038.1
39.16647	2075	2035.9
39.17669	2023	2033.6
39.18682	2119	2031.3
39.19695	2047	2028.6
39.20707	2061	2025.5
39.21729	2016	2021.9
39.22742	2052	2017.8
39.23755	2058	2013.1
39.24767	2089	2007.9
39.2579	2096	2002.1
39.26802	2069	1995.9
39.27814	2004	1989.4
39.28827	2093	1982.6
39.2985	1987	1975.5
39.30862	2062	1968.2
39.31875	2089	1960.9
39.32888	2119	1953.6
39.3391	1973	1945.4
39.34923	1978	1938.3
39.35935	1945	1931.4
39.36948	1972	1924.8
39.3797	1911	1918.5
39.38983	1850	1912.6
39.39995	1910	1907.1
39.41008	1937	1902.1
39.4203	1954	1897.4
39.43043	1914	1893.2
39.44056	1880	1888.9
39.45068	1933	1885.6
39.46091	1868	1882.5
39.47104	1891	1879.7
39.48116	1935	1877.2
39.49129	1868	1875
39.50151	1849	1873.1
39.51164	1779	1871.5
39.52176	1846	1870.3
39.53189	1851	1869.4
39.54211	1795	1869
39.55224	1833	1868.9
39.56237	1853	1869.1
39.57249	1834	1869.8
39.58272	1846	1870.8
39.59284	1889	1872.2
39.60297	1796	1874
39.61309	1918	1876.1
39.62332	1811	1878.6
39.63345	1836	1881.4
39.64357	1942	1884.4
39.6537	1757	1887.6
39.66393	1883	1891
39.67405	1828	1894.7
39.68417	1888	1898.3
39.6943	1853	1904.4
39.70452	1900	1911.9
39.71465	1870	1919.4
39.72478	1878	1926.9
39.73491	1855	1934.5
39.74513	1946	1942.5
39.75526	1926	1950.4
39.76538	1886	1958.5
39.77551	1899	1967
39.78574	1888	1975.7
39.79586	2058	1984.6
39.80598	1951	1993.8
39.81611	1992	2003.3
39.82634	2095	2013.1
39.83646	2001	2023.1
39.84659	2010	2032.9
39.85672	2104	2042.9
39.86694	2084	2052.8
39.87707	2081	2062.4
39.8872	2129	2071.5
39.89732	2171	2079.9
39.90755	2117	2087.8
39.91768	2127	2094.7
39.9278	2251	2100.7
39.93792	2185	2105.5
39.94805	2249	2109.3
39.95828	2141	2111.9
39.9684	2154	2113.5
39.97853	2098	2113.9
39.98875	2135	2113.3
39.99888	2213	2111.8
40.00901	2177	2109.3
40.01914	2185	2106.1
40.02926	2175	2102.1
40.03949	2090	2097.4
40.04961	2129	2092.2
40.05974	2116	2086.4
40.06987	2133	2080.2
40.08009	2071	2073.6
40.09022	1989	2066.7
40.10035	2124	2059.5
40.11047	2020	2052
40.1207	2087	2044.4
40.13083	2103	2036.6
40.14095	2003	2028.7
40.15108	1985	2020.7
40.1613	2048	2012.5
40.17143	2007	2004.4
40.18155	2001	1996.2
40.19168	2080	1988.1
40.20191	2053	1979.9
40.21203	1923	1971.9
40.22216	1984	1964.1
40.23229	1940	1956.4
40.24251	1908	1948.8
40.25264	1890	1941.5
40.26277	1878	1934.4
40.2729	1972	1925.2
40.28312	1919	1914.2
40.29325	1868	1903.5
40.30338	1939	1893.3
40.3135	1936	1883.4
40.32372	1854	1873.8
40.33385	1754	1864.6
40.34398	1829	1855.8
40.35411	1760	1847.4
40.36433	1764	1839.3
40.37446	1867	1831.6
40.38459	1836	1824.3
40.39471	1813	1817.3
40.40494	1784	1810.6
40.41507	1767	1804.3
40.42519	1828	1798.3
40.43532	1870	1792.7
40.44555	1710	1787.2
40.45567	1759	1782.1
40.4658	1783	1777.3
40.47593	1702	1772.7
40.48615	1695	1768.3
40.49628	1690	1764.2
40.5064	1810	1760.4
40.51653	1781	1756.8
40.52676	1795	1753.3
40.53688	1720	1750.2
40.54701	1730	1747.2
40.55714	1692	1744.5
40.56736	1731	1741.9
40.57749	1687	1739.6
40.58762	1773	1737.6
40.59774	1770	1735.7
40.60797	1779	1734.1
40.6181	1723	1732.7
40.62822	1693	1731.5
40.63835	1754	1730.6
40.64858	1672	1729.9
40.65871	1601	1729.5
40.66883	1664	1729.4
40.67896	1731	1729.6
40.68919	1782	1730.1
40.69931	1725	1730.9
40.70944	1765	1732.1
40.71957	1743	1733.6
40.72979	1665	1735.6
40.73992	1729	1737.9
40.75005	1677	1740.7
40.76017	1777	1743.8
40.7704	1814	1747.4
40.78053	1765	1751.4
40.79066	1771	1755.8
40.80078	1784	1760.6
40.81101	1760	1765.3
40.82114	1721	1770.7
40.83126	1754	1776.3
40.84139	1842	1782.1
40.85162	1791	1788.8
40.86174	1824	1796.4
40.87187	1828	1803.9
40.882	1844	1811.4
40.89222	1828	1818.8
40.90235	1868	1825.9
40.91248	1744	1832.6
40.92261	1887	1838.9
40.93283	1871	1844.7
40.94296	1855	1849.7
40.95309	1851	1853.9
40.96321	1804	1857.3
40.97344	1803	1859.6
40.98357	1836	1860.8
40.99369	1837	1861.1
41.00382	1892	1860.1
41.01405	1816	1858.2
41.02418	1843	1855.3
41.03431	1809	1851.5
41.04443	1856	1846.9
41.05466	1852	1841.7
41.06479	1856	1836
41.07491	1881	1829.9
41.08504	1805	1823.4
41.09527	1879	1816.8
41.10539	1822	1810
41.11552	1865	1803.2
41.12565	1791	1796.5
41.13578	1795	1790
41.146	1903	1783.7
41.15613	1848	1777.7
41.16626	1775	1772.1
41.17648	1776	1767
41.18661	1872	1762.3
41.19674	1741	1758.2
41.20687	1792	1754.7
41.21699	1776	1751.7
41.22722	1725	1749.3
41.23735	1780	1747.6
41.24747	1739	1746.5
41.2576	1853	1746
41.26783	1726	1746.1
41.27796	1756	1746.8
41.28809	1798	1748.2
41.29821	1755	1750.1
41.30844	1832	1752.8
41.31857	1822	1756.1
41.3287	1773	1760
41.33883	1715	1764.6
41.34905	1716	1769.9
41.35918	1802	1775.7
41.3693	1705	1782.1
41.37943	1794	1789
41.38966	1794	1796.3
41.39979	1770	1804
41.40992	1748	1811.9
41.42004	1789	1820
41.43027	1878	1828.7
41.4404	1756	1838
41.45053	1880	1847.1
41.46066	1768	1855.9
41.47088	1836	1864.4
41.48101	1896	1872.3
41.49113	1856	1879.6
41.50126	1801	1886.5
41.51149	1836	1893
41.52162	1902	1898.9
41.53175	1868	1904.3
41.54187	1864	1909.1
41.5521	1802	1913.5
41.56223	1928	1917.2
41.57236	1943	1920.3
41.58249	1936	1922.6
41.59271	1916	1924.2
41.60284	1910	1925
41.61296	1971	1924.9
41.62309	1896	1923.9
41.63332	1924	1922
41.64345	1873	1919.3
41.65358	1887	1915.9
41.66371	1914	1911.8
41.67393	1953	1907.1
41.68406	1873	1901.9
41.69419	1983	1896.5
41.70432	1858	1890.8
41.71455	1898	1884.9
41.72467	1942	1879.1
41.7348	1945	1873.3
41.74493	1887	1867.8
41.75515	1919	1862.4
41.76528	1937	1857.5
41.77541	1850	1853
41.78554	1873	1849
41.79577	1865	1845.7
41.8059	1854	1843
41.81602	1864	1841.1
41.82615	1902	1839.9
41.83638	1871	1839.5
41.84651	1807	1839.6
41.85664	1848	1840.6
41.86676	1737	1842.1
41.87699	1834	1844.2
41.88712	1898	1846.6
41.89725	1866	1849.2
41.90738	1852	1851.9
41.9176	1865	1854.4
41.92773	1866	1856.5
41.93786	1946	1858.3
41.94799	1838	1859.4
41.95822	1872	1859.7
41.96835	1868	1859.3
41.97847	1900	1858.2
41.9886	1879	1856.3
41.99883	1841	1853.6
42.00895	1909	1850
42.01908	1905	1845.1
42.02921	1839	1839.8
42.03944	1845	1834
42.04957	1837	1828
42.0597	1808	1821.7
42.06982	1818	1815.2
42.08005	1764	1808.6
42.09018	1767	1802.1
42.10031	1871	1795.6
42.11044	1727	1789.3
42.12067	1804	1783.2
42.13079	1793	1777.5
42.14092	1773	1772.1
42.15105	1758	1767.1
42.16128	1816	1762.4
42.17141	1670	1758.2
42.18153	1718	1754.2
42.19167	1736	1750.4
42.20189	1771	1746.9
42.21202	1582	1743.4
42.22215	1734	1740.1
42.23228	1650	1736.8
42.2425	1756	1733.5
42.25264	1710	1730
42.26276	1717	1726.4
42.27289	1718	1722.5
42.28312	1642	1718.4
42.29325	1676	1714
42.30338	1700	1709.3
42.3135	1589	1704.3
42.32373	1755	1699.1
42.33386	1696	1693.6
42.34399	1687	1687.9
42.35412	1682	1682
42.36435	1625	1676
42.37447	1643	1669.8
42.38461	1598	1663.7
42.39473	1735	1657.7
42.40496	1581	1651.4
42.41508	1619	1645.3
42.42522	1610	1639.3
42.43534	1614	1633.4
42.44557	1663	1627.7
42.4557	1691	1622.1
42.46583	1661	1616.8
42.47596	1657	1611.7
42.48619	1523	1606.8
42.49632	1585	1602.2
42.50645	1671	1597.9
42.51657	1589	1593.9
42.5268	1643	1590
42.53693	1671	1586.4
42.54706	1633	1583.1
42.55719	1623	1580
42.56732	1628	1577.2
42.57755	1599	1574.5
42.58767	1612	1572.4
42.59781	1566	1572.1
42.60803	1635	1572.1
42.61816	1636	1572.2
42.62829	1618	1572.4
42.63842	1501	1572.9
42.64854	1578	1573.5
42.65878	1624	1574.3
42.6689	1570	1575.2
42.67903	1649	1576.2
42.68916	1607	1577.4
42.69939	1604	1578.8
42.70952	1556	1580.3
42.71965	1540	1581.9
42.72978	1548	1583.6
42.74001	1561	1585.6
42.75013	1576	1587.6
42.76027	1622	1589.9
42.77039	1585	1592.2
42.78062	1579	1594.7
42.79075	1547	1597.4
42.80088	1568	1600.3
42.81101	1611	1603.4
42.82124	1605	1606.7
42.83136	1645	1610.2
42.8415	1722	1613.9
42.85162	1587	1617.9
42.86185	1587	1622.3
42.87198	1623	1626.8
42.88211	1622	1631.7
42.89224	1575	1637
42.90247	1623	1642.7
42.9126	1621	1648.6
42.92273	1648	1654.9
42.93285	1672	1661.5
42.94308	1678	1668.6
42.95321	1647	1675.9
42.96334	1593	1683.5
42.97347	1618	1691.4
42.9837	1703	1699.4
42.99383	1658	1707.6
43.00396	1740	1715.6
43.01409	1663	1723.5
43.02432	1709	1731.3
43.03445	1690	1738.7
43.04457	1757	1745.6
43.0547	1686	1751.9
43.06493	1718	1757.7
43.07506	1728	1762.8
43.08519	1751	1766.8
43.09532	1708	1770.4
43.10555	1800	1773.4
43.11568	1696	1775.6
43.12581	1739	1777.3
43.13594	1795	1778.4
43.14617	1741	1778.9
43.1563	1739	1779
43.16643	1650	1778.7
43.17655	1766	1775.7
43.18678	1682	1772.4
43.19691	1793	1768.7
43.20704	1771	1764.9
43.21717	1709	1760.8
43.2274	1847	1756.2
43.23753	1864	1751.8
43.24766	1789	1746.5
43.25779	1763	1741.9
43.26802	1798	1737.1
43.27815	1709	1732.3
43.28828	1730	1727.5
43.2984	1829	1722.6
43.30864	1787	1717.7
43.31876	1740	1712.8
43.32889	1797	1707.7
43.33902	1806	1702.9
43.34925	1725	1697.6
43.35938	1749	1692.8
43.36951	1694	1688.1
43.37964	1740	1683.4
43.38987	1710	1678.7
43.4	1716	1674.2
43.41013	1735	1669.9
43.42026	1694	1665.6
43.43049	1767	1661.4
43.44062	1691	1657.4
43.45075	1720	1653.6
43.46088	1682	1649.9
43.4711	1637	1646.4
43.48124	1680	1643.1
43.49137	1624	1640
43.5015	1673	1637.1
43.51173	1658	1634.4
43.52185	1580	1631.9
43.53199	1677	1629.6
43.54211	1626	1627.4
43.55235	1595	1625.5
43.56247	1649	1623.7
43.5726	1587	1622
43.58273	1640	1620.5
43.59296	1596	1619.1
43.60309	1681	1617.8
43.61322	1592	1616.6
43.62335	1651	1615.5
43.63358	1612	1614.3
43.64371	1633	1613.3
43.65384	1593	1612.3
43.66397	1652	1611.4
43.6742	1643	1610.6
43.68433	1674	1609.9
43.69446	1621	1609.2
43.70459	1702	1608.6
43.71482	1551	1608
43.72495	1611	1607.6
43.73508	1605	1607.2
43.74521	1637	1606.8
43.75534	1631	1606.1
43.76557	1553	1605.3
43.7757	1588	1604.6
43.78583	1525	1604
43.79606	1635	1603.4
43.80619	1586	1602.8
43.81632	1585	1602.2
43.82645	1499	1601.6
43.83658	1551	1601
43.84681	1574	1600.3
43.85694	1590	1599.6
43.86707	1593	1598.9
43.8772	1572	1598.1
43.88743	1497	1597.2
43.89756	1621	1596.4
43.90769	1649	1595.5
43.91782	1641	1594.7
43.92805	1553	1593.9
43.93818	1548	1593.1
43.94831	1615	1592.4
43.95844	1620	1591.7
43.96867	1536	1591.2
43.9788	1521	1590.8
43.98893	1691	1590.4
43.99906	1548	1590.3
44.00929	1601	1590.2
44.01942	1637	1590.4
44.02955	1558	1590.7
44.03968	1571	1591.2
44.04991	1541	1591.8
44.06004	1540	1592.6
44.07017	1545	1593.6
44.0803	1610	1594.7
44.09053	1542	1595.9
44.10066	1597	1597.2
44.11079	1626	1598.6
44.12092	1621	1600.1
44.13115	1530	1601.6
44.14128	1592	1603.1
44.15141	1539	1604.7
44.16154	1530	1606.3
44.17177	1576	1608
44.1819	1563	1609.6
44.19203	1584	1611.1
44.20216	1588	1612.6
44.21239	1597	1614.2
44.22252	1679	1615.6
44.23265	1552	1617
44.24278	1616	1618.4
44.25301	1617	1619.7
44.26314	1625	1620.8
44.27327	1501	1621.9
44.28341	1567	1622.9
44.29364	1730	1623.8
44.30376	1633	1624.6
44.3139	1557	1625.2
44.32403	1682	1625.5
44.33426	1663	1626.8
44.34439	1660	1628
44.35452	1655	1628.9
44.36465	1678	1629.3
44.37488	1634	1629.3
44.38501	1596	1629.1
44.39514	1680	1628.3
44.40527	1713	1627
44.4155	1648	1625.4
44.42563	1620	1623.3
44.43576	1663	1620.9
44.44589	1661	1618.2
44.45612	1700	1615.2
44.46626	1661	1611.9
44.47638	1640	1608.3
44.48651	1654	1604.7
44.49674	1595	1600.9
44.50687	1592	1597.1
44.51701	1608	1593.2
44.52714	1628	1589.3
44.53736	1625	1585.4
44.5475	1709	1581.6
44.55763	1623	1577.9
44.56776	1574	1574.3
44.57799	1586	1570.8
44.58812	1569	1567.4
44.59825	1555	1564.4
44.60838	1604	1561.5
44.61861	1620	1558.9
44.62874	1527	1556.5
44.63887	1533	1554.3
44.64901	1550	1552.4
44.65923	1517	1550.6
44.66936	1509	1549.2
44.6795	1536	1547.9
44.68963	1544	1546.9
44.69986	1513	1546
44.70999	1501	1545.4
44.72012	1535	1544.9
44.73025	1576	1544.6
44.74048	1547	1544.5
44.75061	1551	1544.4
44.76074	1498	1544.7
44.77087	1504	1545.2
44.78111	1549	1545.7
44.79124	1532	1546.5
44.80137	1544	1547.4
44.8115	1500	1548.4
44.82173	1542	1549.7
44.83186	1493	1551.1
44.84199	1511	1552.7
44.85212	1591	1554.4
44.86235	1532	1556.3
44.87249	1518	1558.4
44.88261	1523	1560.8
44.89275	1553	1563.3
44.90298	1505	1566
44.91311	1544	1568.6
44.92324	1600	1571.3
44.93337	1610	1574.2
44.9436	1573	1577.3
44.95373	1591	1580.6
44.96386	1578	1584.2
44.974	1557	1587.9
44.98423	1661	1591.9
44.99436	1652	1596
45.00449	1551	1600.4
45.01462	1598	1604.9
45.02475	1600	1609.5
45.03498	1672	1614.4
45.04511	1647	1619.3
45.05524	1647	1624.4
45.06548	1628	1629.6
45.07561	1620	1634.9
45.08574	1661	1640.2
45.09587	1664	1645.5
45.106	1652	1650.7
45.11623	1670	1656
45.12636	1618	1661
45.13649	1662	1665.8
45.14662	1638	1670.3
45.15685	1704	1674.6
45.16698	1687	1678.4
45.17712	1680	1681.8
45.18725	1746	1684.8
45.19748	1670	1687.5
45.20761	1703	1689.6
45.21774	1765	1691.3
45.22787	1736	1692.6
45.23811	1808	1693.6
45.24824	1698	1694.3
45.25837	1750	1694.8
45.2685	1737	1695.1
45.27873	1639	1695.2
45.28886	1662	1695.3
45.29899	1673	1695.3
45.30913	1721	1695.3
45.31936	1728	1695.3
45.32949	1715	1695.4
45.33962	1711	1695.7
45.34975	1696	1696
45.35999	1673	1696.5
45.37012	1668	1697.1
45.38025	1707	1697.9
45.39038	1697	1698.8
45.40061	1629	1699.8
45.41074	1749	1701
45.42087	1651	1702.3
45.431	1699	1703.6
45.44123	1713	1705.1
45.45137	1666	1706.6
45.4615	1727	1708.1
45.47163	1659	1709.8
45.48186	1677	1711.4
45.49199	1725	1711
45.50212	1790	1709.5
45.51226	1742	1707.9
45.52249	1682	1706.4
45.53262	1741	1705
45.54275	1734	1703.7
45.55288	1650	1702.5
45.56311	1672	1701.3
45.57325	1707	1700.3
45.58338	1740	1699.2
45.59351	1645	1698.5
45.60374	1703	1698.1
45.61387	1644	1698
45.62401	1699	1698.1
45.63414	1702	1698.5
45.64437	1648	1699.4
45.6545	1651	1700.5
45.66463	1751	1702
45.67476	1680	1703.9
45.68499	1672	1706.2
45.69513	1629	1708.6
45.70526	1814	1711.3
45.71539	1735	1714.3
45.72562	1747	1717.3
45.73576	1707	1720.4
45.74589	1722	1723.5
45.75602	1678	1726.4
45.76625	1735	1729.2
45.77639	1698	1731.7
45.78651	1632	1733.9
45.79665	1772	1735.7
45.80688	1678	1737.1
45.81701	1754	1738.1
45.82714	1749	1738.6
45.83728	1757	1738.7
45.84751	1797	1738.5
45.85764	1681	1737.9
45.86777	1735	1736.9
45.8779	1816	1735.7
45.88813	1652	1734.3
45.89827	1696	1732.7
45.9084	1784	1731
45.91853	1773	1729.2
45.92876	1834	1727.4
45.93889	1824	1725.7
45.94903	1756	1724
45.95916	1718	1722.6
45.96939	1715	1721.4
45.97952	1783	1720.4
45.98965	1746	1719.7
45.99979	1799	1719.2
46.01002	1738	1718.9
46.02015	1734	1718.9
46.03028	1660	1719
46.04042	1742	1719.2
46.05065	1694	1719.4
46.06078	1659	1719.4
46.07091	1722	1722.2
46.08105	1627	1727
46.09128	1646	1731.6
46.10141	1724	1735.8
46.11154	1691	1739.6
46.12168	1692	1743.1
46.13191	1828	1746.3
46.14204	1786	1749.1
46.15217	1697	1751.6
46.1623	1685	1754.1
46.17254	1721	1756.4
46.18267	1765	1758.7
46.1928	1745	1761.1
46.20293	1720	1763.6
46.21307	1680	1766.3
46.2233	1785	1769.4
46.23343	1791	1772.8
46.24356	1833	1776.6
46.2538	1737	1780.9
46.26393	1757	1785.6
46.27406	1820	1790.8
46.28419	1784	1796.5
46.29432	1814	1802.6
46.30456	1768	1809.1
46.31469	1879	1815.8
46.32482	1799	1822.8
46.33495	1821	1829.7
46.34519	1803	1836.7
46.35532	1905	1843.3
46.36545	1851	1849.6
46.37559	1895	1855.3
46.38582	1858	1860.3
46.39595	1839	1864.5
46.40609	1964	1867.7
46.41621	1953	1869.9
46.42645	1941	1871
46.43658	1934	1870.9
46.44671	1889	1869.6
46.45684	2003	1867
46.46708	1894	1863.2
46.47721	1880	1858.2
46.48734	1931	1852.1
46.49748	1897	1845
46.50771	1932	1836.8
46.51784	1878	1827.8
46.52798	1902	1818.1
46.53811	1861	1807.7
46.54834	1812	1796.8
46.55848	1810	1785.6
46.5686	1790	1774.1
46.57874	1794	1762.5
46.58897	1733	1750.8
46.5991	1699	1739.2
46.60924	1787	1727.9
46.61937	1738	1716.7
46.6296	1696	1705.8
46.63974	1728	1695.4
46.64987	1696	1684.4
46.66	1691	1673.1
46.67023	1704	1662.1
46.68037	1628	1651.8
46.6905	1655	1642
46.70063	1707	1632.8
46.71087	1557	1624
46.721	1483	1615.9
46.73113	1589	1608.2
46.74126	1602	1601
46.7515	1618	1594.2
46.76163	1534	1587.9
46.77176	1525	1581.9
46.7819	1495	1576.4
46.79213	1550	1571
46.80227	1487	1566.1
46.8124	1544	1561.5
46.82253	1531	1557.2
46.83276	1460	1553.1
46.84289	1539	1549.3
46.85303	1488	1545.6
46.86316	1559	1542.1
46.87339	1574	1538.8
46.88353	1518	1535.6
46.89366	1543	1532.5
46.90379	1488	1529.4
46.91403	1501	1526.6
46.92416	1506	1523.8
46.9343	1521	1521.1
46.94442	1393	1518.4
46.95466	1451	1515.7
46.96479	1490	1513.1
46.97493	1520	1510.6
46.98506	1538	1508.1
46.99529	1442	1505.6
47.00542	1556	1503.3
47.01556	1541	1500.9
47.02569	1464	1498.7
47.03592	1450	1496.6
47.04606	1470	1494.4
47.05619	1430	1492.3
47.06633	1484	1490.3
47.07656	1445	1488.4
47.08669	1563	1486.5
47.09682	1565	1484.6
47.10696	1495	1482.8
47.11719	1447	1481.1
47.12732	1527	1479.4
47.13746	1467	1477.7
47.14759	1406	1476
47.15783	1456	1474.3
47.16796	1498	1472.7
47.17809	1454	1471.1
47.18823	1465	1469.5
47.19846	1469	1467.8
47.2086	1415	1466.2
47.21872	1449	1464.5
47.22886	1425	1462.6
47.23909	1458	1460
47.24923	1450	1457.5
47.25936	1400	1455.1
47.26949	1449	1452.7
47.27972	1422	1450.3
47.28986	1487	1448
47.3	1378	1445.7
47.31013	1431	1443.5
47.32036	1455	1441.4
47.33049	1484	1439.3
47.34063	1471	1437.3
47.35076	1429	1435.4
47.36099	1479	1433.5
47.37113	1467	1431.8
47.38126	1439	1430.2
47.3914	1477	1428.8
47.40163	1502	1427.5
47.41176	1482	1426.4
47.4219	1473	1425.4
47.43203	1570	1424.6
47.44226	1435	1423.8
47.4524	1438	1423.3
47.46253	1480	1422.9
47.47266	1457	1422.7
47.4829	1421	1422.6
47.49303	1488	1422.7
47.50317	1499	1423
47.5133	1460	1423.5
47.52353	1443	1424.2
47.53367	1458	1424.7
47.5438	1370	1425.7
47.55394	1420	1426.7
47.56417	1511	1428
47.5743	1340	1429.3
47.58444	1471	1430.8
47.59457	1436	1432.4
47.6048	1421	1434.1
47.61494	1489	1436
47.62507	1416	1438.1
47.6352	1402	1440.2
47.64534	1450	1442.6
47.65557	1469	1445.1
47.66571	1457	1447.9
47.67584	1483	1450.9
47.68608	1477	1454.2
47.69621	1524	1457.8
47.70634	1527	1461.6
47.71648	1546	1465.8
47.72661	1472	1470.4
47.73685	1439	1475.3
47.74698	1474	1480.6
47.75711	1470	1486.2
47.76725	1523	1492.2
47.77748	1572	1498.6
47.78762	1489	1505.2
47.79775	1501	1512.1
47.80788	1588	1519.8
47.81812	1477	1530
47.82825	1548	1540.2
47.83839	1542	1550.3
47.84852	1543	1560.4
47.85876	1525	1570.3
47.86889	1568	1579.9
47.87902	1590	1589.1
47.88916	1590	1597.9
47.89939	1584	1606.3
47.90953	1613	1613.8
47.91966	1581	1620.9
47.92979	1534	1627.3
47.94003	1640	1633.1
47.95016	1567	1638.2
47.9603	1546	1642.5
47.97043	1566	1646.1
47.98067	1629	1649
47.9908	1621	1651.2
48.00093	1631	1652.8
48.01107	1635	1653.6
48.0213	1598	1653.9
48.03144	1562	1653.4
48.04157	1550	1652.6
48.05171	1680	1651.3
48.06194	1562	1649.6
48.07207	1659	1647.6
48.08221	1627	1645.3
48.09235	1650	1642.7
48.10258	1620	1639.9
48.11271	1659	1637
48.12284	1623	1633.9
48.13298	1636	1630.8
48.14322	1649	1627.4
48.15335	1616	1624.1
48.16349	1600	1620.7
48.17362	1579	1617.2
48.18385	1646	1613.7
48.19399	1584	1610.2
48.20412	1604	1606.7
48.21426	1652	1603.3
48.22449	1642	1599.8
48.23463	1593	1596.5
48.24476	1599	1593.3
48.25489	1642	1590.3
48.26513	1639	1587.3
48.27526	1706	1584.4
48.2854	1588	1581.7
48.29554	1562	1579.1
48.30577	1577	1576.6
48.3159	1527	1574.2
48.32604	1607	1571.9
48.33617	1623	1569.7
48.34641	1612	1567.5
48.35654	1632	1565.4
48.36668	1599	1563.4
48.37681	1596	1561.4
48.38705	1551	1558.8
48.39718	1547	1553.4
48.40731	1556	1548
48.41745	1470	1542.6
48.42768	1570	1537.1
48.43782	1516	1531.6
48.44796	1600	1526.1
48.45809	1462	1520.6
48.46833	1520	1515
48.47846	1523	1509.5
48.4886	1446	1503.9
48.49873	1459	1498.3
48.50896	1500	1492.7
48.5191	1471	1487.2
48.52923	1423	1481.7
48.53937	1465	1476.3
48.5496	1462	1470.8
48.55974	1496	1465.5
48.56987	1500	1460.3
48.58001	1460	1455.2
48.59024	1439	1450.2
48.60038	1505	1445.3
48.61052	1432	1440.6
48.62065	1453	1436.1
48.63089	1412	1431.6
48.64102	1462	1427.4
48.65115	1431	1423.3
48.66129	1409	1419.4
48.67152	1435	1415.6
48.68166	1372	1412
48.6918	1386	1408.5
48.70193	1366	1405.2
48.71217	1420	1402
48.7223	1426	1399
48.73244	1413	1396
48.74257	1387	1393.2
48.7528	1346	1390.5
48.76294	1358	1387.8
48.77308	1334	1385.3
48.78321	1380	1382.9
48.79344	1353	1380.5
48.80358	1405	1378.3
48.81372	1409	1376.1
48.82385	1500	1374
48.83399	1374	1372.1
48.84422	1403	1370.2
48.85436	1363	1368.4
48.86449	1346	1366.8
48.87473	1335	1365.3
48.88486	1361	1363.9
48.895	1318	1362.7
48.90513	1317	1361.6
48.91527	1432	1360.7
48.9255	1339	1359.9
48.93564	1380	1359.3
48.94577	1392	1358.9
48.95591	1394	1358.7
48.96614	1348	1358.8
48.97628	1384	1360.3
48.98642	1384	1362
48.99655	1379	1364
49.00679	1377	1366.3
49.01693	1363	1368.7
49.02706	1360	1371.4
49.03719	1433	1374.3
49.04743	1411	1377.4
49.05756	1349	1380.7
49.0677	1435	1384.2
49.07784	1422	1387.9
49.08807	1414	1391.8
49.09821	1398	1395.7
49.10834	1338	1399.7
49.11848	1404	1403.7
49.12871	1376	1407.8
49.13885	1321	1411.9
49.14899	1401	1415.9
49.15912	1429	1419.8
49.16936	1406	1423.7
49.17949	1375	1427.5
49.18962	1466	1431.1
49.19976	1468	1434.6
49.21	1480	1437.9
49.22013	1414	1441.2
49.23027	1416	1444.4
49.24041	1471	1447.4
49.25064	1452	1450.5
49.26078	1507	1453.4
49.27091	1431	1456.2
49.28105	1374	1459
49.29129	1417	1461.7
49.30142	1470	1464.4
49.31155	1466	1467
49.32169	1415	1469.7
49.33192	1524	1472.2
49.34206	1460	1474.9
49.3522	1446	1477.5
49.36234	1455	1480.2
49.37257	1492	1482.9
49.38271	1472	1485.7
49.39284	1452	1488.6
49.40298	1448	1491.5
49.41322	1461	1494.5
49.42335	1514	1497.6
49.43348	1524	1500.8
49.44362	1497	1504.1
49.45385	1506	1507.5
49.46399	1535	1511
49.47413	1598	1514.4
49.48426	1557	1518
49.4945	1524	1521.6
49.50464	1542	1525.3
49.51477	1512	1529
49.52491	1504	1532.7
49.53514	1520	1536.5
49.54528	1640	1540.3
49.55542	1614	1544.9
49.56555	1519	1549.6
49.57579	1531	1554.3
49.58592	1609	1558.9
49.59606	1540	1563.5
49.6062	1614	1567.9
49.61643	1562	1572.3
49.62657	1567	1576.5
49.63671	1554	1580.5
49.64684	1566	1584.3
49.65708	1567	1587.7
49.66721	1549	1590.9
49.67735	1577	1593.6
49.68748	1645	1595.9
49.69772	1605	1597.7
49.70786	1581	1599
49.71799	1662	1599.7
49.72813	1584	1599.9
49.73837	1557	1599.5
49.7485	1622	1598.5
49.75864	1577	1596.9
49.76878	1522	1594.8
49.77901	1495	1592.1
49.78915	1515	1589
49.79929	1599	1585.4
49.80942	1620	1581.5
49.81966	1602	1577
49.82979	1591	1572.3
49.83993	1590	1567.3
49.85007	1579	1562.1
49.8603	1598	1556.5
49.87044	1477	1550.8
49.88058	1557	1545
49.89071	1648	1539.1
49.90095	1617	1533.1
49.91109	1567	1527.1
49.92122	1529	1521.2
49.93136	1491	1515.4
49.9416	1533	1509.6
49.95173	1547	1504.1
49.96187	1512	1498.7
49.972	1588	1493.6
49.98224	1465	1488.8
49.99238	1565	1484.3
50.00251	1436	1480.1
50.01265	1463	1476.2
50.02289	1422	1472.6
50.03302	1541	1469.5
50.04316	1473	1466.7
50.0533	1454	1464.2
50.06353	1475	1462
50.07367	1498	1460.2
50.08381	1423	1458.8
50.09394	1502	1457.6
50.10408	1485	1456.7
50.11432	1524	1456
50.12445	1494	1455.5
50.13459	1399	1455
50.14482	1436	1454.5
50.15496	1462	1454.2
50.1651	1528	1454
50.17524	1495	1453.8
50.18538	1525	1453.6
50.19561	1418	1453.5
50.20575	1440	1453.3
50.21588	1400	1453
50.22602	1451	1452.7
50.23626	1502	1452.3
50.2464	1458	1451.8
50.25653	1480	1451.1
50.26667	1412	1450.3
50.27691	1396	1449.3
50.28704	1388	1448.2
50.29718	1419	1446.9
50.30732	1423	1445.4
50.31755	1400	1443.7
50.32769	1428	1441.8
50.33783	1417	1439.7
50.34796	1401	1437.4
50.3582	1403	1434.8
50.36834	1353	1432.1
50.37848	1360	1429.3
50.38861	1462	1426.3
50.39885	1439	1423.2
50.40899	1457	1420
50.41912	1430	1416.7
50.42926	1327	1413.4
50.4395	1393	1410
50.44963	1434	1406.7
50.45977	1372	1403.4
50.46991	1413	1400.2
50.48014	1347	1397
50.49028	1388	1394
50.50042	1394	1391
50.51056	1396	1388.2
50.52079	1378	1385.5
50.53093	1364	1383
50.54107	1321	1380.7
50.5512	1384	1378.6
50.56144	1342	1376.6
50.57158	1389	1374.8
50.58172	1401	1373.2
50.59185	1373	1371.8
50.60209	1304	1370.7
50.61222	1285	1369.7
50.62236	1360	1368.9
50.6325	1309	1368.3
50.64274	1350	1367.9
50.65288	1417	1367.6
50.66301	1343	1367.5
50.67315	1384	1367.5
50.68339	1317	1367.6
50.69353	1319	1367.9
50.70366	1344	1368.3
50.7138	1366	1369.1
50.72404	1393	1370.1
50.73417	1411	1371.1
50.74431	1381	1372.2
50.75445	1407	1373.4
50.76469	1399	1374.6
50.77483	1391	1375.8
50.78496	1371	1377
50.7951	1380	1378.1
50.80534	1394	1379.2
50.81548	1344	1380.3
50.82561	1361	1381.3
50.83575	1379	1382.2
50.84599	1412	1383
50.85612	1407	1383.6
50.86626	1410	1384.1
50.8764	1434	1384.4
50.88663	1413	1384.6
50.89677	1414	1384.7
50.90691	1394	1384.5
50.91705	1366	1384.3
50.92729	1406	1383.8
50.93742	1401	1383.3
50.94756	1440	1382.6
50.9577	1404	1381.7
50.96794	1451	1380.8
50.97808	1400	1379.7
50.98821	1408	1378.6
50.99835	1413	1377.4
51.00859	1440	1376.1
51.01873	1381	1374.8
51.02886	1449	1373.5
51.039	1454	1372.1
51.04924	1378	1370.7
51.05938	1398	1369.3
51.06952	1373	1368
51.07965	1368	1366.6
51.08989	1372	1365.3
51.10003	1397	1364.1
51.11017	1393	1362.9
51.1203	1414	1361.8
51.13054	1385	1360.7
51.14068	1420	1359.8
51.15082	1405	1359
51.16096	1416	1358.3
51.17119	1431	1357.7
51.18133	1359	1357.2
51.19147	1306	1356.9
51.20161	1357	1356.7
51.21185	1315	1356.6
51.22198	1382	1356.7
51.23212	1319	1356.9
51.24226	1320	1357.3
51.2525	1323	1357.8
51.26263	1299	1358.4
51.27277	1366	1359.2
51.28291	1359	1360.2
51.29305	1369	1360.4
51.30329	1361	1360.3
51.31343	1381	1360.4
51.32356	1346	1360.5
51.3338	1316	1360.9
51.34394	1351	1361.3
51.35408	1368	1361.9
51.36422	1292	1362.6
51.37435	1321	1363.4
51.38459	1362	1364.3
51.39473	1295	1365.2
51.40487	1376	1366.2
51.415	1388	1367.3
51.42524	1365	1368.3
51.43538	1358	1369.3
51.44552	1313	1370.3
51.45566	1382	1371.3
51.4659	1363	1372.1
51.47604	1375	1372.8
51.48618	1352	1373.4
51.49631	1354	1373.9
51.50655	1354	1374.2
51.51669	1366	1374.3
51.52682	1327	1374.3
51.53696	1307	1374.2
51.5472	1355	1373.8
51.55734	1340	1373.4
51.56748	1430	1372.8
51.57762	1424	1372.1
51.58786	1377	1371.4
51.598	1357	1370.5
51.60814	1372	1369.6
51.61827	1352	1368.6
51.62851	1401	1367.6
51.63865	1307	1366.6
51.64878	1347	1365.6
51.65892	1339	1364.7
51.66916	1340	1363.7
51.6793	1342	1362.9
51.68944	1385	1362.1
51.69958	1366	1361.5
51.70982	1361	1361
51.71996	1395	1360.7
51.73009	1387	1360.5
51.74023	1338	1360.6
51.75047	1353	1360.8
51.76061	1329	1361.3
51.77075	1359	1361.9
51.78089	1371	1362.8
51.79113	1306	1364
51.80127	1346	1365.3
51.8114	1404	1366.9
51.82154	1327	1368.7
51.83178	1338	1370.7
51.84192	1301	1372.9
51.85206	1371	1375.2
51.8622	1421	1377.7
51.87244	1351	1380.6
51.88258	1374	1383.9
51.89272	1443	1387.2
51.90285	1335	1390.5
51.91309	1429	1393.9
51.92323	1437	1397.1
51.93337	1403	1400.2
51.94351	1406	1403.2
51.95374	1428	1406.1
51.96388	1400	1408.8
51.97402	1419	1411.3
51.98416	1449	1413.6
51.9944	1475	1415.8
52.00454	1448	1417.7
52.01468	1505	1419.5
52.02481	1481	1421
52.03506	1490	1422.4
52.04519	1456	1423.7
52.05533	1462	1424.7
52.06547	1371	1425.7
52.07571	1438	1426.5
52.08585	1409	1427.1
52.09599	1460	1427.6
52.10613	1422	1428
52.11637	1405	1428.2
52.12651	1419	1428.3
52.13665	1415	1428.3
52.14679	1434	1428.1
52.15702	1462	1427.8
52.16716	1420	1427.3
52.1773	1383	1426.7
52.18744	1408	1425.9
52.19768	1460	1424.9
52.20782	1465	1423.7
52.21796	1492	1422.4
52.2281	1371	1420.8
52.23833	1408	1419.1
52.24847	1401	1417.2
52.25862	1482	1415.2
52.26876	1398	1412.9
52.279	1435	1410.5
52.28913	1423	1408
52.29927	1426	1405.4
52.30941	1373	1402.7
52.31965	1402	1399.8
52.32979	1370	1397
52.33993	1416	1394.1
52.35007	1385	1391.2
52.36031	1384	1388.2
52.37045	1415	1385.3
52.38058	1389	1382.4
52.39073	1372	1379.5
52.40096	1387	1376.6
52.41111	1346	1373.9
52.42124	1335	1371.2
52.43138	1439	1368.7
52.44162	1401	1366.2
52.45176	1324	1364.1
52.4619	1389	1362.2
52.47204	1389	1360.5
52.48228	1408	1358.9
52.49242	1349	1357.5
52.50256	1359	1356.4
52.5127	1291	1355.4
52.52294	1383	1354.6
52.53308	1293	1354
52.54322	1328	1353.7
52.55335	1338	1353.5
52.56359	1326	1353.5
52.57373	1313	1353.7
52.58387	1363	1354.1
52.59401	1358	1354.6
52.60425	1348	1355.3
52.61439	1361	1356.1
52.62453	1353	1356.9
52.63467	1362	1357.9
52.64491	1300	1358.9
52.65505	1347	1359.9
52.66519	1338	1360.9
52.67533	1448	1361.8
52.68557	1335	1362.7
52.69571	1324	1363.6
52.70585	1342	1364.3
52.71599	1345	1365
52.72613	1378	1365.5
52.73637	1375	1365.9
52.74651	1379	1366.2
52.75665	1348	1366.4
52.76689	1381	1366.2
52.77703	1352	1366.1
52.78717	1352	1365.9
52.79731	1368	1365.5
52.80745	1408	1365.1
52.81768	1385	1364.5
52.82782	1331	1363.9
52.83796	1376	1363.2
52.84811	1363	1362.4
52.85835	1411	1361.5
52.86848	1361	1360.6
52.87862	1323	1359.6
52.88877	1306	1358.6
52.89901	1391	1357.6
52.90915	1320	1356.5
52.91928	1334	1355.6
52.92942	1320	1354.7
52.93967	1372	1353.8
52.9498	1335	1353
52.95994	1385	1352.3
52.97009	1394	1351.6
52.98032	1328	1351.1
52.99046	1298	1350.7
53.00061	1333	1350.4
53.01075	1359	1350.3
53.02098	1266	1350.3
53.03112	1373	1350.5
53.04127	1282	1351.1
53.05141	1295	1351.9
53.06165	1338	1352.9
53.07178	1395	1353.9
53.08192	1405	1355.1
53.09206	1352	1356.2
53.1023	1365	1357.7
53.11245	1378	1359.3
53.12259	1434	1361
53.13272	1281	1362.7
53.14297	1324	1364.6
53.15311	1406	1366.5
53.16325	1367	1368.4
53.17339	1393	1370.3
53.18363	1383	1372.1
53.19377	1369	1374
53.20391	1389	1375.9
53.21405	1367	1377.7
53.22429	1359	1379.5
53.23443	1460	1381.1
53.24457	1447	1382.8
53.25471	1417	1384.3
53.26495	1333	1385.8
53.27509	1407	1387.2
53.28523	1373	1388.4
53.29537	1412	1389.6
53.30561	1436	1390.7
53.31575	1385	1391.7
53.32589	1452	1392.4
53.33603	1393	1393.2
53.34627	1414	1394
53.35641	1435	1394.6
53.36655	1412	1395.2
53.37669	1365	1395.7
53.38693	1434	1396.1
53.39708	1443	1396.5
53.40722	1384	1396.9
53.41736	1431	1397.1
53.4276	1452	1397.4
53.43774	1419	1397.6
53.44788	1448	1397.7
53.45802	1412	1397.8
53.46826	1438	1397.9
53.4784	1457	1398
53.48854	1458	1398.1
53.49868	1447	1398.2
53.50892	1407	1398.2
53.51906	1410	1398.3
53.5292	1405	1398.3
53.53934	1472	1398.4
53.54958	1363	1398.4
53.55973	1448	1398.5
53.56987	1395	1398.5
53.58001	1384	1398.5
53.59025	1361	1398.5
53.60038	1406	1398.4
53.61053	1433	1398.2
53.62067	1428	1397.3
53.63091	1421	1396.3
53.64105	1481	1395.4
53.65119	1374	1394.4
53.66133	1390	1393.4
53.67157	1297	1392.3
53.68171	1399	1391.3
53.69186	1418	1390.3
53.702	1427	1389.3
53.71224	1446	1388.3
53.72238	1356	1387.4
53.73252	1348	1386.5
53.74266	1397	1385.7
53.7529	1354	1384.9
53.76304	1357	1384.3
53.77318	1379	1383.7
53.78332	1385	1383.3
53.79356	1303	1383
53.8037	1353	1382.7
53.81385	1320	1382.7
53.82399	1362	1382.7
53.83423	1357	1382.9
53.84437	1336	1383.2
53.85451	1390	1383.6
53.86465	1349	1384.1
53.87489	1313	1384.7
53.88503	1333	1385.5
53.89517	1338	1386.3
53.90532	1304	1387.1
53.91545	1315	1388
53.9257	1377	1388.9
53.93584	1348	1389.7
53.94598	1371	1390.5
53.95622	1296	1391.3
53.96636	1352	1392
53.97651	1392	1392.5
53.98664	1387	1392.9
53.99678	1319	1393.2
54.00703	1372	1393.4
54.01717	1351	1393.4
54.02731	1345	1393.2
54.03745	1381	1392.8
54.04769	1391	1392.4
54.05783	1395	1391.8
54.06797	1363	1391
54.07812	1405	1390.2
54.08836	1356	1389.2
54.0985	1371	1388.1
54.10864	1421	1386.9
54.11878	1335	1385.7
54.12902	1295	1384.3
54.13916	1349	1382.9
54.1493	1379	1381.4
54.15945	1417	1379.9
54.16969	1344	1378.2
54.17983	1384	1376.6
54.18997	1411	1374.9
54.20011	1368	1373.1
54.21035	1357	1371.2
54.2205	1377	1369.3
54.23064	1366	1367.4
54.24078	1368	1365.5
54.25102	1410	1363.5
54.26116	1373	1361.5
54.2713	1435	1359.5
54.28144	1323	1357.4
54.29168	1428	1355.4
54.30183	1347	1353.3
54.31197	1398	1351.2
54.32211	1461	1349.2
54.33235	1404	1347
54.34249	1418	1345
54.35264	1353	1342.8
54.36277	1313	1340.7
54.37302	1290	1338.6
54.38316	1455	1336.5
54.3933	1359	1334.4
54.40344	1361	1332.3
54.41368	1375	1330.2
54.42383	1398	1328.2
54.43397	1391	1326.2
54.44411	1419	1324.1
54.45435	1400	1322.1
54.4645	1273	1320.2
54.47464	1311	1318.2
54.48478	1384	1316.3
54.49502	1375	1314.4
54.50516	1345	1312.6
54.5153	1282	1310.8
54.52544	1353	1309.1
54.53569	1291	1307.3
54.54583	1295	1305.6
54.55597	1368	1304
54.56611	1367	1302.4
54.57635	1303	1300.8
54.5865	1300	1299.3
54.59664	1354	1297.8
54.60678	1311	1296.4
54.61702	1301	1295
54.62717	1284	1293.6
54.63731	1329	1292.3
54.64745	1286	1291.1
54.65769	1334	1289.8
54.66783	1335	1288.7
54.67797	1265	1287.6
54.68812	1241	1286.6
54.69836	1323	1285.7
54.7085	1255	1284.8
54.71864	1277	1283.9
54.72879	1265	1283.2
54.73903	1276	1282.5
54.74917	1290	1281.9
54.75931	1250	1281.3
54.76945	1317	1280.8
54.77969	1228	1279.2
54.78984	1264	1277.8
54.79998	1268	1276.4
54.81012	1223	1275.1
54.82036	1273	1273.9
54.83051	1284	1272.8
54.84065	1253	1271.7
54.85079	1209	1270.8
54.86103	1297	1270
54.87118	1283	1269.3
54.88132	1229	1268.7
54.89146	1262	1268
54.9017	1315	1267.6
54.91184	1276	1267.3
54.92199	1268	1267.1
54.93213	1250	1267.1
54.94237	1231	1267.1
54.95251	1244	1267.3
54.96266	1284	1267.6
54.9728	1231	1268
54.98304	1281	1268.5
54.99318	1268	1269.2
55.00333	1217	1269.9
55.01347	1249	1270.7
55.02371	1287	1271.7
55.03385	1285	1272.7
55.04399	1250	1274
55.05414	1314	1275.3
55.06438	1287	1276.8
55.07452	1278	1278.4
55.08467	1252	1280
55.09481	1195	1281.8
55.10505	1292	1283.7
55.11519	1293	1285.7
55.12534	1237	1287.8
55.13548	1249	1289.9
55.14572	1268	1292.2
55.15586	1312	1294.5
55.166	1227	1296.9
55.17615	1278	1299.4
55.18629	1210	1302
55.19653	1284	1304.7
55.20668	1277	1307.5
55.21682	1254	1310.3
55.22706	1279	1313.2
55.23721	1312	1316.2
55.24735	1242	1319.2
55.25749	1288	1322.3
55.26764	1287	1325.5
55.27788	1312	1328.7
55.28802	1331	1332
55.29816	1332	1335.3
55.3083	1328	1338.6
55.31855	1279	1342
55.32869	1309	1345.3
55.33883	1365	1348.7
55.34898	1364	1352
55.35922	1351	1358.3
55.36936	1354	1364.6
55.37951	1449	1370.9
55.38965	1409	1377.1
55.39989	1421	1383.2
55.41003	1355	1389.1
55.42017	1428	1394.9
55.43032	1414	1400.4
55.44056	1416	1405.9
55.4507	1343	1411.1
55.46085	1424	1416
55.47099	1454	1420.8
55.48124	1421	1425.3
55.49138	1402	1429.6
55.50152	1512	1433.6
55.51167	1535	1437.4
55.52191	1492	1441
55.53205	1412	1444.3
55.54219	1507	1447.4
55.55233	1462	1450.3
55.56258	1526	1453
55.57272	1470	1455.4
55.58286	1467	1457.6
55.59301	1482	1459.6
55.60325	1474	1461.5
55.6134	1485	1463
55.62354	1427	1464.4
55.63368	1526	1465.6
55.64392	1537	1466.6
55.65407	1550	1467.3
55.66421	1524	1467.9
55.67435	1599	1468.3
55.6846	1516	1468.5
55.69474	1495	1468.5
55.70488	1554	1468.3
55.71503	1476	1467.9
55.72527	1519	1467.3
55.73541	1527	1466.5
55.74556	1532	1465.6
55.7557	1521	1464.4
55.76595	1495	1463.1
55.77609	1515	1461.6
55.78623	1549	1459.9
55.79637	1467	1458
55.80662	1512	1456
55.81676	1569	1453.9
55.8269	1431	1451.7
55.83705	1429	1449.3
55.84729	1458	1446.9
55.85743	1370	1444.5
55.86758	1466	1442
55.87772	1490	1439.4
55.88797	1400	1436.9
55.89811	1476	1434.4
55.90825	1462	1431.9
55.9184	1426	1429.5
55.92864	1375	1427.1
55.93879	1398	1424.1
55.94893	1426	1421.1
55.95907	1409	1418.1
55.96931	1378	1415.3
55.97946	1404	1412.5
55.9896	1364	1409.8
55.99974	1378	1407.2
56.00999	1372	1404.6
56.02013	1419	1402.2
56.03028	1364	1399.8
56.04042	1327	1397.5
56.05066	1368	1395.2
56.06081	1373	1393
56.07095	1361	1390.9
56.08109	1362	1388.8
56.09134	1318	1386.7
56.10148	1363	1384.7
56.11163	1357	1382.6
56.12177	1333	1380.7
56.13201	1371	1378.7
56.14216	1373	1376.7
56.1523	1317	1374.8
56.16245	1340	1372.9
56.17269	1332	1371
56.18283	1302	1369.1
56.19298	1380	1367.3
56.20312	1382	1365.4
56.21336	1321	1363.6
56.22351	1289	1361.8
56.23365	1371	1360
56.2438	1318	1358.2
56.25404	1345	1356.4
56.26418	1315	1354.7
56.27433	1273	1353
56.28447	1320	1351.4
56.29472	1310	1349.8
56.30486	1382	1348.2
56.31501	1313	1346.7
56.32515	1334	1345.2
56.33539	1335	1343.8
56.34554	1349	1342.4
56.35568	1296	1341.1
56.36582	1295	1339.9
56.37597	1395	1338.7
56.38621	1333	1337.6
56.39636	1312	1336.5
56.4065	1388	1335.5
56.41674	1325	1334.5
56.42689	1346	1333.6
56.43703	1362	1332.7
56.44718	1293	1331.8
56.45732	1365	1331
56.46756	1396	1330.2
56.47771	1276	1329.4
56.48785	1366	1328.7
56.498	1322	1327.9
56.50824	1433	1327.2
56.51839	1319	1325.5
56.52853	1318	1323.5
56.53868	1298	1321.5
56.54892	1332	1319.4
56.55907	1397	1317.4
56.56921	1300	1315.4
56.57935	1337	1313.4
56.5896	1367	1311.5
56.59974	1319	1309.5
56.60989	1360	1307.6
56.62003	1281	1305.7
56.63028	1309	1303.8
56.64042	1368	1302
56.65057	1343	1300.3
56.66071	1286	1298.6
56.67095	1269	1296.9
56.6811	1307	1295.3
56.69124	1270	1293.7
56.70139	1283	1292.2
56.71163	1283	1290.7
56.72178	1296	1289.4
56.73192	1354	1288.1
56.74207	1339	1286.8
56.75231	1327	1285.6
56.76245	1282	1284.5
56.7726	1246	1283.5
56.78275	1346	1282.5
56.79299	1325	1281.6
56.80313	1289	1280.8
56.81328	1226	1280
56.82343	1289	1279.3
56.83367	1288	1278.6
56.84381	1261	1277.9
56.85395	1320	1277.3
56.8641	1226	1276.6
56.87434	1226	1276.1
56.88449	1282	1275.5
56.89463	1284	1275
56.90478	1261	1274.5
56.91502	1266	1273.9
56.92517	1260	1273.4
56.93531	1267	1272.9
56.94546	1260	1272.3
56.9557	1232	1271.7
56.96585	1286	1271.1
56.97599	1312	1270.5
56.98614	1334	1269.8
56.99638	1277	1269.1
57.00653	1231	1268.4
57.01667	1220	1267.7
57.02682	1307	1266.9
57.03706	1237	1266.1
57.04721	1278	1265.3
57.05735	1274	1264.5
57.0675	1229	1263.6
57.07774	1272	1262.5
57.08789	1237	1261.6
57.09803	1296	1260.8
57.10818	1254	1260
57.11842	1244	1259.3
57.12857	1253	1258.5
57.13871	1261	1257.7
57.14886	1263	1256.9
57.1591	1270	1256.2
57.16925	1223	1255.4
57.17939	1242	1254.7
57.18954	1234	1254
57.19978	1280	1253.3
57.20993	1276	1252.6
57.22008	1272	1251.9
57.23022	1207	1251.2
57.24047	1233	1250.5
57.25061	1191	1249.8
57.26075	1202	1249.2
57.2709	1245	1248.6
57.28114	1285	1248
57.29129	1271	1247.4
57.30144	1260	1246.9
57.31158	1330	1246.3
57.32183	1263	1245.8
57.33197	1178	1245.3
57.34212	1294	1244.9
57.35226	1226	1244.4
57.36251	1236	1244
57.37265	1217	1243.6
57.3828	1301	1243.3
57.39294	1243	1243
57.40319	1198	1242.7
57.41333	1237	1242.4
57.42348	1223	1242.1
57.43363	1262	1241.9
57.44387	1266	1241.7
57.45402	1279	1241.5
57.46416	1210	1241.3
57.47431	1310	1241.1
57.48455	1241	1240.9
57.4947	1248	1240.7
57.50484	1184	1240.5
57.51499	1253	1240.3
57.52523	1247	1240.1
57.53538	1240	1239.8
57.54552	1246	1239.5
57.55567	1277	1239.2
57.56592	1247	1238.9
57.57607	1255	1238.5
57.58621	1248	1238.1
57.59636	1224	1237.7
57.6066	1257	1237.2
57.61675	1228	1236.7
57.62689	1255	1236.1
57.63704	1264	1235.5
57.64728	1259	1234.8
57.65743	1289	1234.1
57.66757	1196	1233.3
57.67772	1189	1233.2
57.68797	1309	1233.4
57.69811	1281	1233.7
57.70826	1238	1233.9
57.7184	1231	1234.1
57.72865	1231	1234.2
57.7388	1252	1234.4
57.74894	1291	1234.6
57.75909	1167	1234.7
57.76933	1186	1234.9
57.77948	1180	1235.1
57.78962	1247	1235.3
57.79977	1228	1235.5
57.80992	1217	1235.8
57.82016	1200	1236.1
57.83031	1183	1236.3
57.84045	1207	1236.7
57.8507	1196	1237.1
57.86085	1215	1237.5
57.87099	1247	1238
57.88114	1224	1238.6
57.89128	1299	1239.2
57.90153	1177	1239.8
57.91167	1242	1240.5
57.92182	1184	1241.2
57.93197	1221	1242
57.94221	1231	1242.8
57.95236	1239	1243.6
57.96251	1259	1244.5
57.97265	1233	1245.4
57.9829	1278	1246.3
57.99305	1288	1247.2
58.00319	1251	1248.1
58.01334	1235	1249.1
58.02359	1276	1250
58.03373	1254	1251
58.04387	1284	1252
58.05402	1241	1252.9
58.06427	1267	1253.9
58.07441	1265	1254.9
58.08456	1260	1255.9
58.09471	1181	1256.9
58.10495	1287	1257.9
58.1151	1287	1258.9
58.12525	1296	1260
58.1354	1323	1261
58.14564	1257	1262.1
58.15578	1243	1263.1
58.16593	1345	1264.2
58.17608	1248	1265.2
58.18632	1294	1266.3
58.19647	1266	1267.4
58.20662	1247	1268.4
58.21676	1264	1269.5
58.22701	1262	1270.6
58.23716	1223	1271.6
58.2473	1233	1272.6
58.25745	1214	1272.9
58.2677	1261	1272.4
58.27784	1266	1271.8
58.28799	1245	1271.2
58.29813	1329	1270.6
58.30838	1330	1269.9
58.31853	1246	1269.2
58.32867	1267	1268.4
58.33882	1284	1267.7
58.34907	1359	1266.8
58.35921	1271	1265.9
58.36936	1227	1265
58.37951	1262	1264
58.38976	1325	1262.9
58.3999	1305	1261.9
58.41005	1254	1260.8
58.42019	1266	1259.6
58.43044	1239	1258.4
58.44059	1243	1257.2
58.45073	1242	1255.9
58.46088	1273	1254.7
58.47113	1208	1253.4
58.48127	1263	1252
58.49142	1282	1250.8
58.50157	1300	1249.4
58.51181	1245	1248.1
58.52197	1252	1246.8
58.53211	1295	1245.5
58.54226	1234	1244.2
58.55251	1168	1242.9
58.56265	1161	1241.7
58.5728	1149	1240.5
58.58294	1231	1239.4
58.59319	1251	1238.2
58.60334	1247	1237.2
58.61348	1228	1236.2
58.62363	1260	1235.2
58.63388	1238	1234.3
58.64403	1228	1233.5
58.65417	1257	1232.8
58.66432	1265	1232.1
58.67457	1281	1231.5
58.68471	1238	1231
58.69486	1256	1230.5
58.70501	1205	1230.2
58.71525	1257	1229.9
58.7254	1166	1229.8
58.73555	1300	1229.7
58.7457	1218	1229.7
58.75594	1229	1229.8
58.76609	1225	1230
58.77624	1245	1230.3
58.78638	1247	1230.7
58.79663	1250	1231.1
58.80678	1254	1231.7
58.81693	1263	1232.3
58.82707	1241	1233
58.83732	1228	1234.2
58.84747	1238	1236.2
58.85761	1261	1238.3
58.86776	1247	1240.4
58.87801	1232	1242.6
58.88816	1286	1244.8
58.8983	1258	1247.1
58.90845	1263	1249.4
58.9187	1237	1251.7
58.92885	1298	1254
58.93899	1224	1256.3
58.94914	1245	1258.5
58.95938	1281	1260.8
58.96953	1281	1262.9
58.97968	1183	1265.1
58.98983	1226	1267.1
59.00008	1258	1269.1
59.01022	1270	1270.9
59.02037	1244	1272.7
59.03052	1272	1274.4
59.04077	1219	1275.9
59.05091	1226	1277.3
59.06107	1287	1278.5
59.07121	1273	1279.7
59.08136	1261	1280.6
59.0916	1295	1281.4
59.10175	1293	1282.1
59.1119	1336	1282.6
59.12205	1230	1282.9
59.13229	1201	1283
59.14244	1279	1283
59.15259	1243	1282.8
59.16274	1312	1282.5
59.17299	1312	1281.9
59.18314	1316	1281.3
59.19328	1272	1280.4
59.20343	1303	1279.4
59.21368	1240	1278.3
59.22382	1240	1277
59.23397	1369	1275.6
59.24412	1264	1274.1
59.25437	1261	1272.5
59.26451	1266	1270.8
59.27466	1297	1269
59.28481	1323	1267.2
59.29506	1252	1265.3
59.30521	1253	1263.4
59.31536	1258	1261.5
59.3255	1240	1259.6
59.33575	1178	1257.6
59.3459	1272	1255.6
59.35604	1265	1253.7
59.36619	1212	1251.8
59.37644	1263	1249.9
59.38659	1281	1248.1
59.39674	1255	1246.3
59.40689	1280	1244.5
59.41713	1262	1242.8
59.42728	1232	1241
59.43743	1276	1239.2
59.44757	1228	1237.6
59.45783	1250	1235.9
59.46797	1275	1234.4
59.47812	1216	1233
59.48827	1283	1231.6
59.49852	1237	1230.3
59.50866	1244	1229.1
59.51881	1223	1227.9
59.52896	1256	1226.9
59.53921	1192	1225.9
59.54936	1275	1224.9
59.55951	1208	1224.1
59.56966	1172	1223.3
59.5799	1189	1222.5
59.59005	1212	1221.9
59.6002	1245	1221.2
59.61035	1242	1220.7
59.62059	1205	1220.1
59.63074	1212	1219.6
59.64089	1242	1219.2
59.65104	1214	1218.8
59.66129	1175	1218.4
59.67144	1204	1218
59.68159	1259	1217.7
59.69173	1194	1217.4
59.70198	1174	1217.1
59.71213	1214	1216.8
59.72227	1228	1216.5
59.73243	1226	1216.3
59.74267	1157	1216
59.75282	1187	1215.8
59.76297	1220	1215.4
59.77312	1266	1215.2
59.78337	1245	1215
59.79352	1241	1214.7
59.80367	1202	1214.5
59.81382	1254	1214.3
59.82406	1171	1214
59.83421	1243	1213.8
59.84436	1181	1213.6
59.85451	1190	1213.3
59.86475	1210	1213.1
59.8749	1235	1212.9
59.88505	1214	1212.6
59.8952	1269	1212.4
59.90545	1185	1212.2
59.9156	1233	1212
59.92575	1193	1211.8
59.9359	1233	1211.6
59.94614	1233	1211.4
59.9563	1265	1211.3
59.96645	1242	1211.1
59.97659	1217	1211.1
59.98684	1214	1211
59.99699	1254	1210.9
60.00714	1206	1210.8
60.01728	1236	1210.6
60.02753	1171	1210.6
60.03768	1177	1210.5
60.04783	1203	1210.5
60.05798	1242	1210.6
60.06823	1286	1210.7
60.07838	1199	1210.8
60.08853	1150	1210.9
60.09868	1267	1211.2
60.10893	1232	1211.5
60.11907	1175	1211.9
60.12922	1181	1212.3
60.13937	1201	1212.8
60.14962	1238	1213.3
60.15977	1243	1213.9
60.16992	1224	1214.5
60.18007	1178	1215.2
60.19032	1211	1216
60.20047	1179	1216.8
60.21062	1217	1217.6
60.22076	1201	1218.4
60.23101	1250	1219.3
60.24117	1140	1220.2
60.25131	1197	1221.1
60.26146	1180	1222
60.27161	1203	1222.9
60.28186	1239	1223.9
60.29201	1251	1224.7
60.30216	1172	1225.6
60.3124	1214	1226.4
60.32256	1213	1227.2
60.33271	1242	1228
60.34285	1231	1228.7
60.353	1280	1229.3
60.36325	1169	1229.9
60.3734	1248	1230.3
60.38355	1235	1230.8
60.3937	1203	1231.1
60.40395	1263	1231.4
60.4141	1286	1231.6
60.42425	1189	1231.7
60.43439	1230	1231.8
60.44464	1212	1231.8
60.4548	1166	1231.8
60.46495	1215	1231.7
60.47509	1229	1231.5
60.48534	1273	1231.3
60.49549	1268	1231.1
60.50564	1211	1230.8
60.51579	1247	1230.5
60.52604	1263	1230.2
60.53619	1198	1229.8
60.54634	1189	1229.4
60.55649	1211	1229
60.56674	1285	1228.5
60.57689	1209	1228.1
60.58704	1239	1227.4
60.59719	1218	1226.8
60.60744	1203	1226.1
60.61759	1199	1225.5
60.62773	1188	1224.8
60.63788	1269	1224.2
60.64813	1249	1223.5
60.65828	1198	1222.9
60.66843	1219	1222.2
60.67858	1198	1221.6
60.68883	1232	1220.9
60.69898	1233	1220.3
60.70913	1246	1219.7
60.71928	1244	1219.1
60.72953	1209	1218.6
60.73968	1222	1218.1
60.74983	1274	1217.5
60.75998	1264	1217
60.77023	1325	1216.5
60.78038	1250	1216
60.79053	1145	1215.6
60.80068	1226	1215.2
60.81093	1181	1214.7
60.82108	1212	1214.4
60.83123	1211	1214
60.84138	1200	1213.7
60.85163	1193	1213.4
60.86178	1233	1213.1
60.87193	1204	1212.9
60.88208	1284	1212.7
60.89233	1244	1212.6
60.90248	1208	1212.5
60.91262	1193	1212.4
60.92278	1246	1212.4
60.93303	1236	1212.4
60.94318	1190	1212.5
60.95333	1268	1212.7
60.96348	1302	1212.9
60.97373	1206	1213.2
60.98388	1220	1213.5
60.99403	1214	1213.9
61.00418	1206	1214.4
61.01443	1272	1215
61.02458	1258	1215.6
61.03473	1199	1216.3
61.04488	1157	1217.1
61.05513	1194	1218
61.06528	1172	1219
61.07543	1214	1220.1
61.08558	1183	1221.3
61.09583	1174	1222.5
61.10598	1317	1223.9
61.11613	1180	1225.3
61.12628	1228	1226.8
61.13653	1125	1228.4
61.14668	1179	1230.1
61.15683	1230	1231.8
61.16698	1169	1233.7
61.17723	1232	1235.7
61.18738	1285	1237.7
61.19753	1258	1239.7
61.20768	1224	1241.8
61.21793	1312	1243.9
61.22808	1219	1246
61.23823	1271	1248
61.24838	1223	1250.1
61.25863	1218	1252.2
61.26878	1276	1254.1
61.27893	1239	1256
61.28908	1288	1257.9
61.29933	1274	1259.7
61.30948	1313	1261.3
61.31963	1209	1262.9
61.32978	1282	1264.3
61.34003	1234	1265.6
61.35019	1260	1266.8
61.36034	1293	1267.8
61.37049	1207	1268.7
61.38074	1294	1269.4
61.39089	1271	1270
61.40104	1327	1270.4
61.41119	1356	1270.6
61.42144	1241	1270.7
61.43159	1291	1270.7
61.44174	1290	1270.4
61.45189	1271	1270.1
61.46204	1234	1269.6
61.47229	1309	1269
61.48244	1200	1268.3
61.4926	1246	1267.5
61.50285	1351	1266.5
61.513	1296	1265.5
61.52315	1255	1264.4
61.5333	1278	1263.2
61.54345	1267	1261.9
61.5537	1246	1260.6
61.56385	1241	1259.2
61.574	1259	1257.7
61.58415	1230	1256.2
61.5944	1267	1254.7
61.60455	1349	1253.1
61.6147	1241	1251.6
61.62486	1285	1250
61.63511	1252	1248.3
61.64526	1274	1246.7
61.65541	1273	1245.1
61.66555	1238	1243.5
61.67581	1242	1241.8
61.68596	1260	1240.2
61.69611	1259	1238.6
61.70626	1280	1237
61.71651	1210	1235.4
61.72666	1252	1233.9
61.73681	1196	1232.3
61.74697	1227	1231.3
61.75722	1189	1230.3
61.76737	1222	1229.3
61.77752	1223	1228.4
61.78767	1216	1227.5
61.79792	1252	1226.6
61.80807	1209	1225.7
61.81822	1259	1224.9
61.82837	1266	1224
61.83862	1252	1223.1
61.84877	1224	1222.3
61.85893	1246	1221.5
61.86908	1157	1220.6
61.87933	1188	1219.8
61.88948	1164	1219
61.89963	1239	1218.2
61.90979	1215	1217.3
61.92004	1194	1216.5
61.93019	1186	1215.7
61.94033	1198	1214.9
61.95049	1175	1214
61.96074	1178	1213.2
61.97089	1220	1212.4
61.98104	1228	1211.7
61.99119	1200	1210.9
62.00145	1187	1210.1
62.0116	1226	1209.4
62.02175	1204	1208.7
62.0319	1188	1208
62.04215	1197	1207.4
62.0523	1239	1206.8
62.06245	1172	1206.2
62.0726	1174	1205.6
62.08286	1179	1205.1
62.09301	1251	1204.6
62.10316	1190	1204.2
62.11331	1163	1203.8
62.12356	1180	1203.4
62.13371	1234	1203.1
62.14386	1219	1202.8
62.15402	1161	1202.6
62.16427	1246	1202.5
62.17442	1169	1202.3
62.18457	1175	1202.3
62.19472	1247	1202.3
62.20497	1234	1202.2
62.21513	1159	1202.3
62.22528	1194	1202.4
62.23543	1222	1202.5
62.24568	1197	1202.7
62.25583	1190	1202.9
62.26598	1227	1203.2
62.27614	1245	1203.5
62.28639	1159	1203.8
62.29654	1180	1204.2
62.30669	1205	1204.6
62.31684	1182	1205
62.3271	1221	1204.9
62.33725	1188	1204.7
62.3474	1206	1204.5
62.35755	1179	1204.2
62.3678	1213	1204
62.37795	1225	1203.8
62.38811	1254	1203.6
62.39826	1155	1203.4
62.40851	1211	1203.1
62.41866	1162	1202.9
62.42881	1151	1202.7
62.43896	1244	1202.4
62.44922	1272	1202.1
62.45937	1224	1201.9
62.46952	1228	1201.6
62.47967	1267	1201.2
62.48992	1181	1200.9
62.50008	1229	1200.6
62.51023	1153	1200.2
62.52038	1188	1199.8
62.53063	1227	1199.4
62.54079	1234	1199
62.55094	1238	1198.5
62.56109	1240	1198.1
62.57134	1258	1197.6
62.58149	1185	1197.1
62.59164	1223	1196.6
62.6018	1209	1196.1
62.61205	1202	1195.6
62.6222	1269	1195.1
62.63235	1169	1194.6
62.64251	1168	1194.1
62.65276	1143	1193.6
62.66291	1203	1193.1
62.67307	1195	1192.6
62.68322	1195	1192.1
62.69347	1186	1191.6
62.70362	1155	1191.1
62.71377	1189	1190.7
62.72392	1220	1190.2
62.73408	1190	1189.8
62.74433	1153	1189.3
62.75448	1190	1188.9
62.76463	1183	1188.5
62.77479	1161	1188.1
62.78504	1205	1187.7
62.79519	1199	1187.3
62.80534	1214	1187
62.8155	1182	1186.6
62.82575	1230	1186.3
62.8359	1207	1186
62.84605	1193	1185.7
62.8562	1175	1185.4
62.86646	1147	1185.1
62.87661	1188	1184.9
62.88676	1146	1184.7
62.89692	1183	1184.5
62.90717	1202	1184.9
62.91732	1165	1185.8
62.92747	1183	1186.7
62.93763	1162	1187.6
62.94788	1186	1188.6
62.95803	1210	1189.6
62.96819	1195	1190.6
62.97834	1167	1191.6
62.98859	1233	1192.7
62.99874	1244	1193.7
63.00889	1233	1194.8
63.01905	1199	1195.9
63.0293	1243	1197.1
63.03945	1192	1198.2
63.04961	1190	1199.3
63.05976	1194	1200.5
63.07001	1217	1201.7
63.08017	1150	1202.9
63.09032	1206	1204
63.10047	1106	1205.2
63.11072	1181	1206.4
63.12087	1149	1207.6
63.13103	1258	1208.8
63.14118	1278	1209.9
63.15143	1221	1211.1
63.16159	1214	1212.2
63.17174	1176	1213.3
63.18189	1217	1214.4
63.19215	1221	1215.5
63.2023	1208	1216.5
63.21245	1278	1217.6
63.22261	1213	1218.6
63.23286	1172	1219.5
63.24301	1252	1220.4
63.25316	1190	1221.3
63.26331	1246	1222.2
63.27357	1200	1223
63.28372	1208	1223.7
63.29387	1163	1224.5
63.30403	1221	1225.2
63.31428	1178	1225.8
63.32444	1229	1226.4
63.33459	1211	1227
63.34474	1209	1227.5
63.355	1220	1228
63.36515	1216	1228.4
63.3753	1203	1228.8
63.38545	1240	1229.2
63.39571	1251	1229.6
63.40586	1267	1229.9
63.41601	1246	1230.2
63.42617	1177	1230.5
63.43642	1269	1230.7
63.44657	1258	1231
63.45673	1195	1231.2
63.46688	1163	1231.4
63.47713	1212	1231.6
63.48729	1183	1230.8
63.49744	1243	1229.1
63.50759	1293	1227.4
63.51785	1193	1225.6
63.528	1191	1223.9
63.53815	1211	1222.2
63.54831	1222	1220.5
63.55856	1276	1218.8
63.56871	1247	1217.1
63.57887	1195	1215.4
63.58902	1155	1213.7
63.59927	1219	1212
63.60943	1260	1210.3
63.61958	1208	1208.6
63.62973	1211	1207
63.63999	1267	1205.3
63.65014	1217	1203.7
63.66029	1233	1202.1
63.67045	1227	1200.5
63.6807	1228	1198.9
63.69085	1219	1197.4
63.70101	1176	1195.9
63.71116	1246	1194.4
63.72142	1171	1192.9
63.73157	1198	1191.4
63.74173	1190	1190
63.75187	1197	1188.6
63.76213	1184	1187.2
63.77228	1194	1185.9
63.78244	1186	1184.6
63.79259	1210	1183.2
63.80285	1199	1182
63.813	1198	1180.7
63.82315	1167	1179.5
63.83331	1219	1178.4
63.84356	1193	1177.2
63.85371	1217	1176.1
63.86387	1200	1175
63.87402	1173	1174
63.88428	1186	1173
63.89443	1256	1172
63.90459	1183	1171
63.91474	1156	1170.1
63.9249	1194	1169.2
63.93515	1164	1168.3
63.9453	1099	1167.4
63.95545	1225	1166.6
63.96571	1153	1165.8
63.97586	1138	1165
63.98601	1146	1164.2
63.99617	1202	1163.4
64.00642	1156	1162.7
64.01657	1088	1162
64.02673	1181	1161.3
64.03688	1174	1160.6
64.04704	1163	1160
64.05729	1178	1159.4
64.06744	1143	1159.1
64.0776	1159	1159.4
64.08775	1153	1159.6
64.09801	1162	1159.9
64.10816	1138	1160.1
64.11832	1147	1160.4
64.12847	1203	1160.7
64.13873	1139	1160.9
64.14888	1113	1161.2
64.15903	1133	1161.5
64.16919	1128	1161.7
64.17944	1175	1162
64.1896	1141	1162.2
64.19975	1152	1162.5
64.2099	1208	1162.7
64.22016	1147	1162.9
64.23031	1181	1163.2
64.24046	1171	1163.3
64.25062	1134	1163.5
64.26087	1113	1163.6
64.27103	1136	1163.8
64.28118	1111	1163.9
64.29134	1167	1163.9
64.30159	1162	1164
64.31175	1151	1163.9
64.32191	1150	1163.9
64.33206	1162	1163.8
64.34232	1152	1163.7
64.35247	1183	1163.6
64.36263	1117	1163.4
64.37278	1123	1163.2
64.38303	1214	1163
64.39319	1099	1162.6
64.40334	1137	1162.3
64.4135	1159	1162
64.42375	1160	1161.6
64.43391	1262	1161.3
64.44406	1222	1160.9
64.45422	1233	1160.5
64.46447	1196	1160.1
64.47462	1152	1159.6
64.48477	1173	1159.2
64.49493	1121	1158.8
64.50518	1114	1158.3
64.51534	1191	1157.9
64.5255	1123	1157.4
64.53565	1210	1157
64.54591	1174	1156.6
64.55606	1269	1156.1
64.56622	1156	1155.7
64.57637	1195	1155.3
64.58662	1143	1154.9
64.59678	1138	1154.5
64.60693	1203	1154.2
64.61709	1166	1153.9
64.62734	1168	1153.6
64.6375	1175	1153.3
64.64765	1204	1152.9
64.65781	1082	1152
64.66807	1157	1151.1
64.67822	1139	1150.3
64.68838	1131	1149.4
64.69853	1079	1148.7
64.70879	1119	1147.9
64.71894	1164	1147.2
64.7291	1117	1146.5
64.73924	1117	1145.9
64.7495	1111	1145.3
64.75966	1199	1144.7
64.76981	1184	1144
64.77997	1162	1143.5
64.79022	1110	1143
64.80038	1127	1142.5
64.81053	1154	1142
64.82069	1131	1141.6
64.83094	1140	1141.2
64.84109	1159	1140.8
64.85126	1147	1140.4
64.86141	1121	1140
64.87167	1065	1139.6
64.88182	1130	1139.3
64.89198	1155	1138.9
64.90213	1179	1138.6
64.91238	1197	1138.3
64.92254	1122	1137.9
64.9327	1116	1137.6
64.94286	1153	1137.3
64.95311	1089	1136.9
64.96326	1122	1136.6
64.97342	1107	1136.3
64.98357	1148	1135.9
64.99383	1150	1135.6
65.00398	1107	1135.2
65.01414	1113	1134.8
65.02429	1089	1134.5
65.03455	1083	1134.1
65.0447	1114	1133.8
65.05486	1162	1133.4
65.06502	1131	1133
65.07527	1194	1132.7
65.08543	1166	1132.3
65.09558	1163	1132
65.10574	1144	1131.6
65.11599	1175	1131.3
65.12615	1166	1131
65.13631	1135	1130.7
65.14646	1148	1130.5
65.15672	1186	1130.2
65.16687	1121	1130
65.17702	1104	1129.8
65.18719	1137	1129.6
65.19734	1126	1129.5
65.2076	1121	1129.4
65.21775	1111	1129.3
65.22791	1144	1129.7
65.23807	1154	1131.3
65.24832	1146	1132.9
65.25848	1114	1134.6
65.26862	1103	1136.4
65.27888	1094	1138.2
65.28904	1145	1140
65.29919	1123	1141.9
65.30935	1136	1143.8
65.3195	1188	1145.7
65.32976	1131	1147.8
65.33992	1090	1149.8
65.35007	1164	1151.9
65.36023	1195	1154.1
65.37048	1223	1156.3
65.38064	1083	1158.5
65.3908	1156	1160.8
65.40096	1171	1163.1
65.41121	1224	1165.4
65.42136	1087	1167.7
65.43153	1213	1170.1
65.44168	1167	1172.5
65.45193	1158	1174.9
65.46209	1247	1177.2
65.47225	1187	1179.6
65.48241	1119	1182
65.49266	1203	1184.4
65.50282	1227	1186.7
65.51297	1186	1189.1
65.52312	1229	1191.4
65.53338	1150	1193.7
65.54353	1183	1195.9
65.55369	1223	1198.1
65.56385	1183	1200.2
65.5741	1217	1202.3
65.58426	1243	1204.3
65.59441	1214	1206.2
65.60468	1173	1208.1
65.61483	1147	1209.8
65.62498	1236	1211.5
65.63515	1263	1213
65.6453	1213	1214.5
65.65556	1256	1215.9
65.66571	1217	1217.1
65.67587	1187	1218.2
65.68603	1194	1219.3
65.69628	1227	1220.2
65.70644	1203	1220.9
65.7166	1255	1221.6
65.72675	1270	1222.1
65.73701	1193	1222.6
65.74717	1197	1222.9
65.75732	1224	1223.1
65.76748	1224	1223.2
65.77773	1227	1223.3
65.78789	1237	1223.2
65.79804	1280	1223.1
65.8082	1161	1222.6
65.81846	1208	1220.4
65.82861	1187	1218.3
65.83877	1275	1216
65.84893	1189	1213.7
65.85918	1237	1211.4
65.86934	1191	1209
65.87949	1188	1206.6
65.88966	1204	1204.2
65.89991	1189	1201.7
65.91006	1220	1199.3
65.92023	1180	1196.9
65.93038	1185	1194.4
65.94064	1178	1192
65.9508	1225	1189.5
65.96095	1212	1187.1
65.97111	1187	1184.7
65.98137	1172	1182.3
65.99152	1143	1179.9
66.00168	1132	1177.6
66.01184	1198	1175.3
66.02209	1127	1173
66.03225	1185	1170.7
66.0424	1198	1168.5
66.05256	1208	1166.3
66.06281	1190	1164.2
66.07298	1117	1162.1
66.08313	1157	1160
66.09328	1137	1157.9
66.10355	1193	1155.8
66.1137	1124	1153.8
66.12386	1106	1151.8
66.13402	1160	1149.8
66.14427	1140	1147.9
66.15443	1130	1145.9
66.16459	1170	1144
66.17474	1225	1142.1
66.185	1089	1140.2
66.19516	1139	1138.4
66.20531	1161	1136.5
66.21548	1132	1134.7
66.22573	1136	1132.9
66.23589	1125	1131.1
66.24605	1194	1129.4
66.2562	1134	1127.6
66.26646	1180	1125.9
66.27662	1189	1124.2
66.28677	1103	1122.5
66.29693	1109	1120.8
66.30719	1111	1119.1
66.31734	1156	1117.5
66.3275	1067	1115.9
66.33765	1157	1114.3
66.34791	1126	1112.7
66.35807	1179	1111.2
66.36823	1128	1109.6
66.37839	1109	1108.2
66.38864	1088	1106.7
66.3988	1132	1106.9
66.40896	1129	1107.1
66.41911	1113	1107.4
66.42937	1128	1107.6
66.43953	1095	1107.9
66.44969	1141	1108.3
66.45985	1060	1108.7
66.4701	1119	1109.1
66.48026	1138	1109.6
66.49042	1084	1110.1
66.50058	1149	1110.6
66.51083	1138	1111.2
66.52099	1062	1111.8
66.53115	1089	1112.5
66.54131	1101	1113.2
66.55157	1076	1113.9
66.56172	1150	1114.7
66.57188	1123	1115.5
66.58203	1083	1116.3
66.59229	1043	1117.2
66.60245	1094	1118.1
66.6126	1143	1119
66.62276	1110	1119.9
66.63302	1105	1120.8
66.64318	1139	1121.7
66.65334	1072	1122.5
66.6635	1109	1123.4
66.67375	1119	1124.3
66.68391	1133	1125.2
66.69407	1064	1126
66.70422	1102	1126.7
66.71449	1077	1127.5
66.72464	1080	1128.2
66.7348	1069	1128.8
66.74496	1139	1129.4
66.75512	1163	1129.8
66.76537	1135	1130.3
66.77554	1092	1130.6
66.78569	1065	1130.9
66.79585	1141	1131.1
66.80611	1174	1131.2
66.81627	1159	1131.2
66.82642	1194	1131.2
66.83668	1100	1131
66.84683	1091	1130.8
66.85699	1180	1130.5
66.86715	1135	1130.1
66.8774	1084	1129.6
66.88757	1166	1129.1
66.89772	1106	1128.4
66.90788	1065	1127.8
66.91804	1191	1127
66.9283	1108	1126.2
66.93845	1076	1125.3
66.94862	1119	1124.4
66.95877	1158	1123.5
66.96903	1130	1122.5
66.97919	1080	1121
66.98935	1109	1119.4
66.9995	1121	1117.8
67.00977	1081	1116.2
67.01992	1085	1114.6
67.03008	1114	1112.9
67.04024	1179	1111.3
67.0505	1094	1109.7
67.06066	1104	1108.1
67.07082	1151	1106.5
67.08097	1135	1104.9
67.09123	1124	1103.4
67.10139	1138	1101.8
67.11154	1129	1100.4
67.1217	1100	1098.9
67.13196	1070	1097.4
67.14212	1166	1096.1
67.15228	1149	1094.7
67.16244	1128	1093.4
67.17269	1059	1092.1
67.18285	1050	1090.8
67.19301	1086	1089.7
67.20317	1112	1088.5
67.21343	1166	1087.4
67.22359	1112	1086.3
67.23375	1162	1085.3
67.2439	1131	1084.4
67.25417	1107	1083.4
67.26432	1124	1082.5
67.27448	1158	1081.7
67.28464	1083	1080.9
67.2949	1060	1080.1
67.30506	1105	1079.4
67.31522	1075	1078.7
67.32538	1106	1078
67.33563	1075	1077.4
67.34579	1071	1076.8
67.35594	1023	1076.2
67.3661	1048	1075.7
67.37637	1036	1075.2
67.38652	1102	1074.7
67.39668	1067	1074.3
67.40684	1046	1073.8
67.4171	1073	1073.4
67.42725	1067	1073.1
67.43742	1092	1072.7
67.44758	1011	1072.4
67.45783	1064	1072.1
67.46799	1081	1071.8
67.47815	1091	1071.5
67.48831	1072	1071.3
67.49857	1085	1071.1
67.50873	1015	1070.9
67.51889	1041	1070.7
67.52905	1062	1070.6
67.53931	1033	1070.4
67.54947	1090	1070.3
67.55962	1055	1069.9
67.56979	1095	1069.5
67.58005	1078	1069.1
67.5902	1080	1068.7
67.60036	1036	1068.4
67.61051	1148	1068
67.62078	1078	1067.7
67.63094	1070	1067.4
67.64109	1054	1067.1
67.65125	1046	1066.8
67.66151	1096	1066.5
67.67167	1038	1066.3
67.68183	1103	1066.1
67.69199	1059	1065.8
67.70225	1071	1065.6
67.71241	1104	1065.4
67.72256	1050	1065.3
67.73273	1084	1065.1
67.74299	1051	1065
67.75314	1013	1064.8
67.76331	1083	1064.7
67.77347	1051	1064.6
67.78372	1030	1064.6
67.79388	1073	1064.5
67.80405	1101	1064.5
67.8142	1015	1064.5
67.82446	1053	1064.6
67.83463	1087	1064.6
67.84478	1046	1064.7
67.85494	1066	1064.8
67.8651	1052	1064.9
67.87536	1040	1065.1
67.88551	1053	1065.2
67.89568	1059	1065.4
67.90593	1019	1065.6
67.91609	1037	1065.9
67.92625	1050	1066.1
67.93641	1073	1066.4
67.94667	1088	1066.7
67.95683	1098	1067
67.96699	1055	1067.3
67.97715	1072	1067.6
67.98741	1082	1068
67.99757	1052	1068.3
68.00773	1087	1068.6
68.01789	1065	1069
68.02805	1083	1069.3
68.03831	1063	1069.6
68.04847	1036	1069.9
68.05863	1064	1070.2
68.06879	1108	1070.5
68.07905	1084	1070.8
68.08921	1101	1071.1
68.09937	1088	1071.3
68.10953	1061	1071.5
68.11979	1070	1071.7
68.12995	1008	1071.8
68.1401	1068	1072.2
68.15036	1062	1072.6
68.16052	1081	1073
68.17068	1054	1073.3
68.18084	1089	1073.7
68.191	1028	1074
68.20126	1079	1074.3
68.21142	1065	1074.5
68.22158	1069	1074.7
68.23174	1112	1074.9
68.242	1096	1075.1
68.25216	1076	1075.3
68.26232	1139	1075.4
68.27248	1118	1075.5
68.28274	1056	1075.7
68.2929	1043	1075.7
68.30306	1076	1075.8
68.31322	1125	1075.9
68.32348	1077	1076
68.33364	1025	1076
68.3438	1082	1076.1
68.35397	1065	1076.1
68.36422	1071	1076.1
68.37438	1083	1076.2
68.38454	1087	1076.2
68.3947	1095	1076.2
68.40496	1051	1076.3
68.41512	1142	1076.3
68.42528	1087	1076.3
68.43544	1038	1076.4
68.4457	1069	1076.4
68.45586	1024	1076.5
68.46602	1096	1076.5
68.47618	1100	1076.5
68.48644	1084	1076.6
68.4966	1115	1076.6
68.50676	1114	1076.6
68.51692	1087	1076.6
68.52718	1093	1076.7
68.53735	1065	1076.7
68.5475	1125	1076.7
68.55766	1124	1076.6
68.56792	1106	1076.6
68.57809	1101	1076.6
68.58825	1089	1076.5
68.5984	1032	1076.5
68.60867	1084	1076.4
68.61883	1089	1076.4
68.62899	1083	1076.3
68.63915	1018	1076.2
68.64941	1105	1076
68.65956	1099	1075.9
68.66972	1074	1075.7
68.67989	1079	1075.5
68.69015	1110	1075.3
68.70031	1044	1075.1
68.71046	1093	1074.8
68.72063	1040	1074.5
68.73089	1064	1074.1
68.74105	1116	1073.7
68.75121	1032	1073.3
68.76138	1048	1072.8
68.77163	1019	1072.3
68.78179	1062	1071.8
68.79195	1099	1071.3
68.80212	1117	1070.7
68.81238	1048	1070.1
68.82254	1025	1069.5
68.8327	1040	1068.8
68.84286	995	1068.2
68.85312	1090	1067.5
68.86328	1090	1066.8
68.87344	1013	1066
68.88361	1056	1065.3
68.89387	1009	1064.5
68.90402	1128	1063.7
68.91418	1052	1062.9
68.92434	1085	1062.1
68.9346	1055	1061.3
68.94476	1082	1060.5
68.95493	1015	1059.7
68.96509	1084	1058.8
68.97534	1066	1058
68.9855	1068	1057.2
68.99567	1044	1056.4
69.00583	1042	1055.5
69.01609	1099	1054.7
69.02625	1065	1053.9
69.03642	1009	1053.2
69.04658	1124	1052.4
69.05683	1057	1051.7
69.06699	1092	1050.9
69.07716	1056	1050.2
69.08732	1033	1049.6
69.09758	1034	1048.9
69.10774	1028	1048.3
69.1179	1075	1047.7
69.12807	1048	1047.1
69.13823	1068	1046.5
69.14849	1039	1046
69.15865	1006	1045.5
69.1688	1030	1045
69.17907	1023	1044.6
69.18922	1014	1044.2
69.19939	1055	1043.8
69.20955	1029	1043.5
69.21981	1062	1043.1
69.22997	1124	1042.9
69.24014	1054	1042.6
69.2503	1025	1042.4
69.26056	1056	1042.2
69.27072	1048	1042
69.28088	1105	1041.8
69.29104	988	1041.7
69.3012	1079	1041.8
69.31146	1075	1042.1
69.32162	1074	1042.4
69.33179	1076	1042.8
69.34195	1044	1043.1
69.35221	1056	1043.4
69.36237	1049	1043.8
69.37254	1034	1044.2
69.3827	1030	1044.5
69.39296	996	1044.9
69.40312	1083	1045.2
69.41328	1046	1045.6
69.42344	1050	1045.9
69.43371	1051	1046.2
69.44386	1109	1046.5
69.45403	1029	1046.8
69.46419	1026	1047.1
69.47444	997	1047.4
69.4846	984	1047.6
69.49477	1018	1047.8
69.50493	1003	1048
69.51519	1043	1048.2
69.52535	1026	1048.4
69.53551	1070	1048.5
69.54568	1052	1048.6
69.55594	1033	1048.7
69.5661	1039	1048.8
69.57626	1028	1048.8
69.58643	1019	1048.8
69.59669	1079	1048.8
69.60685	1038	1048.8
69.61701	1093	1048.8
69.62717	1046	1048.7
69.63744	1022	1048.6
69.6476	1008	1048.6
69.65776	1026	1048.4
69.66792	1056	1048.3
69.67818	1049	1048.2
69.68835	1076	1048
69.6985	1081	1047.9
69.70866	1045	1047.7
69.71893	1054	1047.5
69.72909	1030	1047.4
69.73925	1056	1047.2
69.74941	1043	1047
69.75967	1066	1046.8
69.76984	1036	1046.6
69.78	1083	1046.5
69.79016	1047	1046.3
69.80042	1029	1046.2
69.81059	1037	1046
69.82075	1049	1045.9
69.83091	1090	1045.8
69.84117	991	1045.7
69.85133	1032	1045.6
69.8615	1056	1045.6
69.87166	1053	1045.5
69.88193	996	1045.2
69.89209	1109	1044.4
69.90225	993	1043.7
69.91241	1116	1043
69.92268	995	1042.3
69.93284	1042	1041.6
69.943	1012	1041
69.95316	982	1040.4
69.96342	1060	1039.8
69.97358	1057	1039.2
69.98374	1048	1038.6
69.9939	1066	1038.1
70.00417	992	1037.6
70.01433	1040	1037.1
70.02449	1043	1036.7
70.03465	1010	1036.2
70.04491	1048	1035.8
70.05508	1057	1035.4
70.06525	1014	1035
70.07541	1050	1034.6
70.08567	1038	1034.3
70.09583	1034	1033.9
70.106	1028	1033.6
70.11616	1070	1033.3
70.12642	1032	1033
70.13658	1009	1032.7
70.14674	1033	1032.5
70.15691	1053	1032.2
70.16717	1051	1031.9
70.17733	1077	1031.7
70.1875	1028	1031.5
70.19766	1063	1031.3
70.20792	1069	1031
70.21809	1040	1030.8
70.22824	1073	1030.7
70.2384	1016	1030.5
70.24866	1085	1030.3
70.25883	1052	1030.1
70.26899	1082	1030
70.27916	1054	1029.9
70.28942	1060	1029.7
70.29958	1039	1029.6
70.30975	995	1029.5
70.31991	1046	1029.5
70.33017	1013	1029.4
70.34033	1017	1029.4
70.35049	1058	1029.3
70.36066	1012	1029.3
70.37093	1028	1029.3
70.38109	1095	1029.3
70.39125	1054	1029.4
70.40141	1043	1029.5
70.41158	1010	1029.5
70.42184	1018	1029.6
70.432	1008	1029.8
70.44217	1047	1029.9
70.45233	1005	1030.1
70.46259	1069	1030.5
70.47276	1020	1031.5
70.48291	1001	1032.5
70.49318	1073	1033.5
70.50333	1015	1034.5
70.5135	1018	1035.6
70.52367	1055	1036.7
70.53393	1051	1037.8
70.54409	1038	1038.9
70.55425	961	1040.1
70.56441	1028	1041.2
70.57458	1089	1042.4
70.58485	1045	1043.6
70.59501	1009	1044.8
70.60517	1014	1046.1
70.61533	1016	1047.3
70.6256	1047	1048.5
70.63577	1114	1049.8
70.64593	1046	1051
70.65609	1015	1052.3
70.66635	1081	1053.5
70.67651	1016	1054.8
70.68668	1114	1056
70.69685	1010	1057.2
70.70711	1038	1058.4
70.71727	1007	1059.6
70.72743	989	1060.8
70.73759	1050	1061.9
70.74786	1046	1063.1
70.75802	1093	1064.1
70.76818	1141	1065.2
70.77834	1063	1066.2
70.78861	1094	1067.2
70.79877	1070	1068.1
70.80894	1064	1069
70.8191	1009	1069.8
70.82936	992	1070.6
70.83953	1086	1071.3
70.84969	1047	1072
70.85986	1056	1072.6
70.87012	1042	1073.2
70.88028	1107	1073.7
70.89045	1027	1074.1
70.90061	1059	1074.5
70.91087	1018	1074.9
70.92104	1038	1075.2
70.93121	1128	1075.4
70.94137	1107	1075.6
70.95163	1080	1075.8
70.96179	1057	1075.9
70.97196	1118	1075.9
70.98212	1087	1076
70.99239	1059	1075.9
71.00255	1098	1075.9
71.01271	1024	1075.8
71.02287	1104	1075.7
71.03313	1089	1075.5
71.0433	1082	1075.2
71.05347	1023	1074.3
71.06363	1092	1073.4
71.07389	1056	1072.5
71.08405	1107	1071.5
71.09422	1095	1070.6
71.10439	1118	1069.6
71.11465	1066	1068.6
71.12481	1118	1067.6
71.13498	1111	1066.6
71.14514	1060	1065.6
71.1554	1019	1064.5
71.16557	1029	1063.5
71.17574	1088	1062.5
71.1859	996	1061.4
71.19616	1113	1060.4
71.20633	1082	1059.3
71.21649	1106	1058.3
71.22665	1038	1057.2
71.23692	1072	1056.2
71.24709	1093	1055.1
71.25725	1048	1054.1
71.2674	1002	1053
71.27767	1093	1051.9
71.28783	1060	1050.9
71.298	1114	1049.9
71.30817	1049	1048.8
71.31843	1011	1047.8
71.32859	1058	1046.7
71.33876	1053	1045.7
71.34892	1067	1044.6
71.35918	1055	1043.6
71.36935	1026	1042.5
71.37952	1055	1041.5
71.38968	1030	1040.4
71.39994	1066	1039.4
71.41011	1032	1038.3
71.42027	1071	1037.3
71.43044	1041	1036.2
71.4407	1086	1035.2
71.45087	1096	1034.1
71.46103	1022	1033.1
71.4712	1017	1032
71.48146	1053	1030.9
71.49162	1014	1029.9
71.50179	1032	1028.9
71.51196	1067	1027.8
71.52222	1030	1026.8
71.53238	1032	1025.8
71.54254	1004	1024.7
71.55271	995	1023.7
71.56297	1032	1022.7
71.57314	984	1021.7
71.58331	1004	1020.7
71.59347	996	1019.8
71.60373	1078	1018.8
71.6139	989	1017.9
71.62406	1045	1017
71.63422	1059	1016.8
71.64449	963	1016.6
71.65466	1002	1016.4
71.66483	1051	1016.2
71.67499	1068	1016.1
71.68515	1008	1015.9
71.69542	987	1015.8
71.70558	1000	1015.7
71.71574	1005	1015.5
71.72591	1036	1015.4
71.73618	978	1015.4
71.74635	1006	1015.3
71.75651	992	1015.2
71.76667	985	1015.1
71.77694	1056	1015.1
71.78709	1027	1015
71.79726	996	1015
71.80753	1021	1014.9
71.81769	962	1014.9
71.82786	1015	1014.8
71.83802	1050	1014.8
71.84819	1060	1014.7
71.85845	998	1014.6
71.86861	962	1014.6
71.87878	1005	1014.5
71.88895	971	1014.4
71.89922	1006	1014.4
71.90938	988	1014.3
71.91954	941	1014.2
71.92971	1001	1014.1
71.93997	1065	1014
71.95014	1036	1013.9
71.9603	995	1013.7
71.97047	1068	1013.6
71.98074	1011	1013.5
71.9909	977	1013.4
72.00107	984	1013.2
72.01123	1036	1013.1
72.0215	1009	1013
72.03166	980	1012.8
72.04183	974	1012.7
72.05199	1001	1012.6
72.06225	1037	1012.4
72.07242	1057	1012.3
72.08258	1047	1012.2
72.09275	975	1012.1
72.10301	1058	1012
72.11318	1003	1011.8
72.12334	1013	1011.7
72.13351	1059	1011.6
72.14378	1023	1011.5
72.15395	1015	1011.5
72.16411	968	1011.4
72.17428	1069	1011.3
72.18454	1051	1011.3
72.1947	1120	1011.2
72.20487	990	1011.2
72.21503	990	1010.6
72.2253	983	1010
72.23547	999	1009.4
72.24564	1031	1008.8
72.2558	1031	1008.3
72.26607	997	1007.7
72.27623	984	1007.2
72.2864	1058	1006.7
72.29656	956	1006.2
72.30683	974	1005.7
72.31699	1023	1005.3
72.32716	1007	1004.9
72.33732	975	1004.4
72.34759	975	1004
72.35775	974	1003.7
72.36792	1030	1003.3
72.37808	1069	1003
72.38835	988	1002.6
72.39851	1009	1002.3
72.40868	1002	1002
72.41885	990	1001.7
72.42912	1001	1001.5
72.43928	920	1001.2
72.44945	1023	1001
72.45961	979	1000.8
72.46988	1026	1000.5
72.48004	958	1000.3
72.49021	967	1000.1
72.50038	1011	999.9
72.51064	972	999.7
72.52081	1039	999.5
72.53098	1002	999.3
72.54115	1013	999.2
72.55141	1059	999
72.56158	1051	998.8
72.57173	1019	998.6
72.5819	997	998.3
72.59216	965	998.1
72.60233	997	997.9
72.6125	989	997.7
72.62267	988	997.4
72.63293	1000	997.1
72.6431	999	996.8
72.65327	1028	996.5
72.66343	1000	996.2
72.6737	1060	995.9
72.68386	956	995.5
72.69403	1017	995.1
72.70419	984	994.7
72.71446	1052	994.3
72.72463	1017	993.9
72.73479	991	993.4
72.74496	930	992.9
72.75523	1012	992.4
72.7654	947	991.9
72.77556	1026	991.4
72.78573	949	990.8
72.796	963	990.5
72.80616	986	990.2
72.81633	961	989.8
72.82648	997	989.5
72.83676	953	989.1
72.84692	959	988.7
72.85709	960	988.3
72.86726	1000	987.9
72.87752	927	987.5
72.88769	981	987.1
72.89786	988	986.7
72.90802	1025	986.2
72.91829	1016	985.8
72.92845	992	985.3
72.93862	962	984.9
72.94879	992	984.4
72.95895	1024	984
72.96922	1004	983.5
72.97939	1007	983.1
72.98956	975	982.7
72.99973	1019	982.2
73.00999	990	981.8
73.02016	922	981.4
73.03033	981	981
73.04049	992	980.5
73.05076	1034	980.1
73.06093	956	979.7
73.07109	1003	979.4
73.08125	978	979
73.09152	977	978.6
73.10168	998	978.3
73.11185	1011	978
73.12202	999	977.7
73.13229	980	977.3
73.14246	1020	977.1
73.15262	983	976.8
73.16279	963	976.5
73.17306	1014	976.3
73.18322	995	976
73.19339	928	975.8
73.20356	940	975.6
73.21382	986	975.4
73.22399	998	975.3
73.23416	962	975.1
73.24432	1010	975
73.25459	987	974.8
73.26476	979	974.7
73.27493	972	974.6
73.2851	1016	974.6
73.29536	959	974.5
73.30553	1022	974.5
73.3157	983	974.4
73.32587	955	974.4
73.33613	951	974.5
73.3463	1011	974.5
73.35646	972	974.5
73.36662	1022	974.6
73.37689	955	974.5
73.38706	981	974.4
73.39723	966	974.3
73.40739	979	974.3
73.41766	955	974.2
73.42783	982	974.2
73.438	975	974.2
73.44817	983	974.2
73.45844	979	974.2
73.4686	963	974.3
73.47877	983	974.4
73.48894	924	974.5
73.49921	967	974.6
73.50937	953	974.8
73.51954	969	974.9
73.52971	934	975.1
73.53998	955	975.3
73.55014	952	975.5
73.56031	972	975.8
73.57048	989	976
73.58074	911	976.3
73.59091	978	976.6
73.60108	947	976.9
73.61124	980	977.3
73.62151	940	977.6
73.63168	967	978
73.64185	966	978.3
73.65202	991	978.7
73.66228	985	979.1
73.67245	991	979.5
73.68262	941	979.9
73.69279	974	980.3
73.70305	972	980.7
73.71322	1017	981.1
73.72339	1011	981.6
73.73356	970	982
73.74382	963	982.4
73.75399	979	982.9
73.76416	983	983.3
73.77433	950	983.8
73.78459	1027	984.2
73.79476	1007	984.6
73.80493	1030	985.1
73.8151	986	985.5
73.82537	971	986
73.83553	1008	986.4
73.8457	983	986.8
73.85587	984	987.3
73.86614	987	987.7
73.87631	980	988.1
73.88647	1039	988.5
73.89664	959	988.8
73.90691	938	989.2
73.91708	975	989.5
73.92725	986	989.8
73.93741	999	990.1
73.94768	978	990.4
73.95785	950	990.6
73.96802	1069	990.9
73.97819	1022	991.1
73.98845	1029	991.3
73.99862	988	991.4
74.00879	938	991.5
74.01896	1021	991.5
74.02923	1014	991.6
74.03939	1036	991.5
74.04956	1003	991.5
74.05973	1032	991.4
74.07	955	991.3
74.08017	998	991.1
74.09034	1049	990.9
74.1005	1042	990.6
74.11067	952	990.3
74.12094	973	989.9
74.13111	982	989.6
74.14127	979	989.2
74.15154	994	988.7
74.16171	1034	988.2
74.17188	931	987.7
74.18204	1004	987.2
74.19231	1035	986.6
74.20248	955	986
74.21265	979	985.4
74.22282	995	984.8
74.23299	1005	984.1
74.24326	976	983.5
74.25343	981	982.8
74.2636	1031	982.1
74.27377	967	981.4
74.28403	989	980.7
74.2942	939	980
74.30437	980	979.2
74.31454	966	978.5
74.32481	939	977.8
74.33498	944	977.1
74.34515	958	976.3
74.35532	1028	975.6
74.36559	926	974.9
74.37576	936	974.2
74.38592	985	973.5
74.39608	932	972.8
74.40635	963	972.2
74.41652	924	971.5
74.42669	979	970.8
74.43686	988	970.2
74.44713	993	969.6
74.4573	934	968.9
74.46747	974	968.3
74.47764	952	967.7
74.4879	1004	967.2
74.49807	937	966.6
74.50824	1014	966
74.51841	1010	965.5
74.52868	961	964.9
74.53885	989	964.7
74.54902	957	964.7
74.55919	960	964.7
74.56946	973	964.7
74.57963	979	964.7
74.5898	998	964.7
74.59997	975	964.8
74.61023	931	964.8
74.6204	955	964.8
74.63057	964	964.8
74.64074	934	964.9
74.65101	986	964.9
74.66118	980	964.9
74.67134	1001	964.9
74.68151	990	964.9
74.69178	993	964.9
74.70195	913	964.9
74.71212	959	964.9
74.72229	977	964.9
74.73256	996	964.9
74.74273	967	964.9
74.7529	960	964.8
74.76307	943	964.7
74.77334	930	964.7
74.78351	972	964.6
74.79368	935	964.5
74.80385	975	964.3
74.81411	968	964.2
74.82428	983	964.1
74.83445	932	963.9
74.84462	1015	963.7
74.85489	950	963.5
74.86506	964	963.3
74.87523	974	963.1
74.8854	1000	962.8
74.89567	965	962.6
74.90584	947	962.3
74.91601	1004	962
74.92617	1018	961.7
74.93644	943	961.4
74.94661	906	961.1
74.95678	958	960.8
74.96695	971	960.5
74.97722	960	960.2
74.98739	951	959.8
74.99756	917	959.5
75.00773	928	959.2
75.018	956	958.8
75.02817	967	958.5
75.03834	948	958.1
75.04851	936	957.8
75.05878	941	957.5
75.06895	955	957.1
75.07912	963	956.8
75.08929	980	956.5
75.09956	998	956.2
75.10973	958	955.9
75.1199	944	955.4
75.13007	925	954.7
75.14034	960	954
75.15051	960	953.4
75.16068	948	952.7
75.17085	958	952.1
75.18112	973	951.5
75.19128	931	950.8
75.20145	948	950.2
75.21162	956	949.7
75.22189	967	949.1
75.23206	977	948.5
75.24223	998	948
75.2524	959	947.4
75.26267	914	946.9
75.27284	951	946.4
75.28301	901	945.9
75.29318	944	945.4
75.30345	881	944.9
75.31362	965	944.5
75.32379	1005	944
75.33396	924	943.6
75.34423	911	943.2
75.35441	954	942.8
75.36458	867	942.4
75.37475	976	942
75.38492	933	941.6
75.39519	956	941.3
75.40536	938	940.9
75.41553	952	940.6
75.4257	939	940.3
75.43597	926	940
75.44613	954	939.7
75.4563	948	939.4
75.46657	950	939.1
75.47675	1025	938.9
75.48692	943	938.6
75.49709	921	938.4
75.50735	913	938.2
75.51752	953	938
75.52769	962	937.8
75.53786	930	937.6
75.54803	934	937.4
75.5583	917	937.3
75.56848	944	937.1
75.57865	969	937
75.58882	979	936.9
75.59909	975	936.7
75.60926	934	936.6
75.61943	951	936.5
75.6296	937	936.4
75.63987	893	936.3
75.65004	974	936.3
75.66022	929	936.2
75.67039	928	936.1
75.68066	935	936.1
75.69083	938	936
75.70099	920	936
75.71116	980	936.2
75.72143	950	936.4
75.73161	944	936.6
75.74178	945	936.8
75.75195	918	937
75.76221	957	937.2
75.77238	903	937.4
75.78255	905	937.6
75.79272	961	937.8
75.803	920	938
75.81317	920	938.2
75.82334	930	938.4
75.83351	949	938.6
75.84378	934	938.7
75.85395	935	938.9
75.86413	920	939.1
75.8743	959	939.2
75.88457	909	939.4
75.89474	911	939.6
75.90491	911	939.7
75.91508	991	939.9
75.92535	937	940
75.93552	918	940.1
75.94569	891	940.3
75.95586	913	940.4
75.96613	989	940.5
75.9763	959	940.7
75.98647	934	940.8
75.99664	946	940.9
76.00691	917	941
76.01708	913	941.1
76.02726	961	941.3
76.03743	904	941.4
76.0477	934	941.5
76.05787	940	941.6
76.06804	878	941.7
76.07822	964	941.8
76.08849	1033	942
76.09866	924	942.1
76.10883	960	942.2
76.119	994	942.3
76.12927	978	942.5
76.13944	956	942.6
76.14961	885	942.8
76.15978	954	942.9
76.17006	920	943.1
76.18023	956	943.2
76.1904	949	943.4
76.20057	962	943.6
76.21085	931	943.7
76.22102	881	943.9
76.23118	978	944.1
76.24135	983	944.3
76.25162	954	944.5
76.2618	945	944.7
76.27197	937	944.8
76.28214	961	945
76.2924	949	945
76.30258	972	945.1
76.31275	894	945.1
76.32292	935	945.1
76.3332	972	945.2
76.34337	928	945.2
76.35354	1037	945.2
76.36371	956	945.3
76.37399	932	945.3
76.38416	945	945.3
76.39433	929	945.3
76.4045	955	945.4
76.41477	925	945.4
76.42494	953	945.4
76.43511	890	945.4
76.44529	938	945.4
76.45556	966	945.4
76.46573	959	945.4
76.4759	970	945.3
76.48607	949	945.3
76.49635	894	945.3
76.50651	966	945.2
76.51669	969	945.1
76.52686	910	945.1
76.53712	934	945
76.54729	1021	944.9
76.55747	952	944.8
76.56764	956	944.6
76.57791	969	944.5
76.58809	994	944.3
76.59826	957	944.2
76.60843	967	944
76.61871	867	943.7
76.62888	929	943.5
76.63905	989	943.2
76.64922	978	943
76.65949	852	942.6
76.66966	904	942.3
76.67984	882	941.9
76.69001	924	941.5
76.70028	902	941.1
76.71045	921	940.7
76.72063	958	940.3
76.7308	971	939.8
76.74107	998	939.4
76.75124	947	938.9
76.76141	948	938.4
76.77158	970	937.8
76.78185	930	937.3
76.79202	923	936.7
76.8022	902	936.1
76.81237	918	935.5
76.82264	935	934.9
76.83282	963	934.3
76.84299	909	933.7
76.85316	926	933.1
76.86343	914	932.4
76.8736	948	931.8
76.88377	952	931.3
76.89395	950	930.7
76.90422	967	930.1
76.9144	948	929.5
76.92457	929	928.9
76.93474	879	928.3
76.94492	918	927.7
76.95518	960	927.1
76.96535	971	926.5
76.97553	913	925.9
76.9857	989	925.4
76.99598	950	924.8
77.00615	948	924.2
77.01631	927	923.6
77.0266	842	923.1
77.03676	903	922.5
77.04694	906	922
77.05711	941	921.5
77.06738	964	921
77.07755	913	920.4
77.08772	963	919.9
77.0979	913	919.5
77.10807	931	919
77.11834	878	918.5
77.12852	916	918.1
77.13869	937	917.6
77.14886	928	917.2
77.15913	935	916.8
77.1693	929	916.4
77.17948	885	916
77.18965	911	915.6
77.19993	916	915.2
77.2101	893	914.8
77.22028	935	914.5
77.23045	922	914.1
77.24072	865	913.8
77.25089	937	913.5
77.26106	883	913.2
77.27123	938	912.9
77.28151	864	912.6
77.29168	871	912.3
77.30185	840	912
77.31203	864	911.7
77.3223	903	911.5
77.33247	925	911.3
77.34264	901	911
77.35281	919	910.8
77.36309	921	910.6
77.37326	922	910.4
77.38344	916	910.2
77.39361	978	910
77.40388	927	909.9
77.41405	916	909.7
77.42423	889	909.6
77.4344	956	909.4
77.44468	893	909.3
77.45485	911	908.9
77.46503	884	908.4
77.4752	902	908.1
77.48547	949	907.7
77.49564	921	907.3
77.50581	892	906.9
77.51599	944	906.6
77.52626	985	906.3
77.53644	896	905.9
77.5466	955	905.6
77.55678	867	905.4
77.56705	912	905.1
77.57722	917	904.8
77.58739	938	904.5
77.59757	898	904.3
77.60784	835	904.1
77.61802	883	903.9
77.62819	872	903.7
77.63837	911	903.5
77.64864	950	903.3
77.65881	932	903.2
77.66899	883	903
77.67916	934	902.9
77.68944	837	902.8
77.69961	883	902.7
77.70979	886	902.6
77.71996	917	902.5
77.73023	904	902.4
77.7404	877	902.3
77.75058	903	902.2
77.76075	895	902.2
77.77103	936	902.1
77.7812	880	902.1
77.79137	908	902.1
77.80154	887	902
77.81181	862	902
77.82198	905	901.9
77.83216	931	901.9
77.84234	928	901.9
77.85261	910	901.8
77.86279	934	901.8
77.87296	906	901.7
77.88313	912	901.7
77.8934	901	901.6
77.90358	869	901.6
77.91376	917	901.5
77.92393	878	901.4
77.9342	952	901.3
77.94437	936	901.2
77.95455	910	901.1
77.96472	853	901
77.975	915	900.8
77.98518	871	900.7
77.99535	934	900.5
78.00552	881	900.3
78.01579	873	900.1
78.02597	893	899.9
78.03614	891	900.2
78.04632	956	900.4
78.05649	858	900.6
78.06676	864	900.7
78.07693	936	900.9
78.0871	906	901.1
78.09738	916	901.3
78.10756	872	901.4
78.11773	882	901.5
78.12791	898	901.7
78.13818	877	901.8
78.14835	868	901.9
78.15853	913	902
78.1687	928	902.1
78.17898	886	902.2
78.18915	893	902.3
78.19933	947	902.4
78.2095	895	902.4
78.21967	939	902.5
78.22995	948	902.6
78.24013	946	902.7
78.2503	903	902.7
78.26048	890	902.8
78.27075	918	902.8
78.28092	924	902.9
78.2911	916	903
78.30127	887	903
78.31155	855	903.1
78.32172	882	903.1
78.33189	937	903.2
78.34216	928	903.2
78.35234	873	903.3
78.36251	904	903.3
78.37269	927	903.4
78.38287	907	903.4
78.39314	904	903.5
78.40331	909	903.5
78.41349	889	903.6
78.42366	907	903.6
78.43394	906	903.7
78.44411	885	903.7
78.45428	900	903.8
78.46446	870	903.8
78.47474	938	903.9
78.48491	935	903.9
78.49509	895	904
78.50526	918	904
78.51553	898	904.1
78.52571	921	904.2
78.53589	920	904.2
78.54606	898	904.3
78.55634	894	904.3
78.56651	953	904.4
78.57668	884	904.5
78.58685	876	904.5
78.59713	914	904.6
78.60731	885	904.7
78.61748	961	904.5
78.62766	897	904.3
78.63793	905	904.1
78.6481	936	903.9
78.65828	927	903.8
78.66846	897	903.6
78.67873	899	903.4
78.6889	872	903.3
78.69908	905	903.1
78.70926	868	902.9
78.71953	912	902.8
78.72971	970	902.6
78.73988	883	902.5
78.75006	905	902.4
78.76033	945	902.2
78.77051	876	902.1
78.78069	912	902
78.79086	921	901.9
78.80113	843	901.8
78.81131	897	901.7
78.82149	840	901.6
78.83165	882	901.5
78.84193	906	901.4
78.8521	869	901.3
78.86228	918	901.3
78.87245	916	901.2
78.88273	860	901.2
78.89291	946	901.1
78.90308	874	901.1
78.91325	880	901
78.92353	915	901
78.93371	947	900.9
78.94389	883	900.9
78.95406	903	900.9
78.96433	871	900.9
78.97451	905	900.8
78.98469	868	900.8
78.99487	914	900.8
79.00513	866	900.8
79.01531	894	900.7
79.02549	914	900.7
79.03567	931	900.7
79.04594	922	900.7
79.05611	893	900.7
79.06629	883	900.6
79.07647	893	900.6
79.08675	927	900.6
79.09692	867	900.5
79.10709	859	900.5
79.11726	879	900.5
79.12754	927	900.4
79.13772	839	900.4
79.14789	890	900.3
79.15807	906	900.3
79.16834	924	900.2
79.17852	920	900.1
79.1887	943	900.1
79.19888	910	899.9
79.20914	918	899.6
79.21932	895	899.4
79.2295	893	899.1
79.23968	871	898.9
79.24995	871	898.6
79.26012	967	898.4
79.2703	863	898.1
79.28048	894	897.8
79.29076	960	897.6
79.30093	849	897.3
79.31111	928	897
79.32128	907	896.7
79.33146	902	896.5
79.34174	861	896.2
79.35191	861	895.9
79.36208	913	895.6
79.37237	958	895.3
79.38254	891	895
79.39271	873	894.8
79.40289	958	894.5
79.41316	941	894.2
79.42334	870	893.8
79.43352	868	893.5
79.4437	956	893.2
79.45397	853	892.9
79.46414	940	892.6
79.47432	864	892.3
79.4845	850	891.9
79.49467	897	891.6
79.50495	916	891.3
79.51513	888	890.9
79.52531	933	890.6
79.53548	890	890.2
79.54575	888	889.9
79.55593	890	889.5
79.56611	928	889.2
79.57629	861	888.8
79.58656	879	888.4
79.59674	893	888
79.60692	897	887.7
79.61709	879	887.3
79.62737	912	886.9
79.63754	928	886.5
79.64771	914	886.1
79.65789	881	885.7
79.66817	845	885.3
79.67834	893	884.9
79.68852	894	884.5
79.6987	960	884.1
79.70898	875	883.7
79.71915	889	883.3
79.72933	897	882.9
79.73951	884	882.5
79.74978	887	882.1
79.75996	880	881.8
79.77013	919	881.4
79.78031	864	881
79.79059	898	880.6
79.80077	809	880.2
79.81094	882	879.9
79.82112	862	879.5
79.8314	864	879.1
79.84158	851	878.7
79.85175	917	878.4
79.86193	857	878
79.87221	894	877.7
79.88239	871	877.4
79.89256	852	877.1
79.90273	824	876.8
79.913	842	876.4
79.92318	867	876.1
79.93336	840	875.9
79.94353	951	875.6
79.95381	900	875.3
79.96399	865	875.1
79.97417	868	874.8
79.98434	868	874.6
79.99462	854	874.3
80.0048	885	874.1
80.01498	860	873.9
80.02515	853	873.7
80.03543	833	873.4
80.04561	935	873.2
80.05579	853	873.1
80.06596	919	872.9
80.07624	910	872.7
80.08642	839	872.5
80.0966	857	872.3
80.10677	893	872.1
80.11705	857	872
80.12723	918	871.8
80.13741	907	871.6
80.14758	870	871.5
80.15786	826	871.3
80.16803	854	871.1
80.17821	820	871
80.18839	857	870.8
80.19866	874	870.6
80.20884	913	870.4
80.21902	859	870.3
80.22919	856	870.1
80.23947	846	869.9
80.24965	876	869.7
80.25983	891	869.5
80.27	826	869.3
80.28028	859	869.1
80.29046	886	868.9
80.30064	918	868.7
80.31081	863	868.4
80.32109	827	868.2
80.33127	863	868
80.34145	891	867.7
80.35162	845	867.5
80.3619	867	867.7
80.37208	860	868.1
80.38226	869	868.6
80.39244	846	869
80.40272	858	869.5
80.4129	882	869.9
80.42307	882	870.3
80.43324	881	870.7
80.44352	889	871.1
80.4537	889	871.6
80.46387	900	872
80.47405	890	872.4
80.48433	869	872.8
80.49451	895	873.2
80.50468	896	873.6
80.51486	848	873.9
80.52514	882	874.3
80.53532	882	874.7
80.5455	878	875.1
80.55568	868	875.5
80.56596	864	875.8
80.57613	898	876.2
80.58631	883	876.6
80.59649	880	877
80.60667	877	877.3
80.61694	866	877.7
80.62712	837	878.1
80.6373	911	878.4
80.64748	885	878.8
80.65775	885	879.2
80.66794	893	879.5
80.67811	892	879.9
80.68839	916	880.3
80.69856	876	880.6
80.70874	875	881
80.71892	877	881.3
80.72919	930	881.7
80.73937	909	882
80.74955	843	882.4
80.75974	843	882.7
80.76991	888	883
80.78019	871	883.4
80.79037	919	883.7
80.80054	907	884
80.81072	869	884.4
80.821	917	884.7
80.83118	857	885
80.84136	890	885.3
80.85154	899	885.6
80.86182	898	885.9
80.87199	870	886.2
80.88217	901	886.5
80.89235	897	886.8
80.90263	843	887.1
80.91281	801	887.4
80.92299	892	887.7
80.93316	828	887.9
80.94344	888	887.8
80.95361	908	887.3
80.96379	851	886.8
80.97398	909	886.3
80.98425	868	885.8
80.99443	897	885.3
81.00461	884	884.7
81.01479	854	884.2
81.02506	909	883.7
81.03525	881	883.2
81.04543	893	882.7
81.0556	863	882.2
81.06588	952	881.6
81.07606	925	881.1
81.08624	894	880.6
81.09642	898	880.2
81.1067	894	879.7
81.11687	872	879.2
81.12705	860	878.7
81.13723	897	878.2
81.14751	872	877.8
81.15769	861	877.3
81.16787	889	876.9
81.17805	887	876.4
81.18832	884	876
81.1985	899	875.6
81.20868	850	875.2
81.21886	880	874.8
81.22913	874	874.5
81.23931	846	874.1
81.2495	879	873.7
81.25967	911	873.4
81.26995	911	873.1
81.28013	877	872.8
81.29031	860	872.5
81.30049	907	872.2
81.31077	891	871.9
81.32095	878	871.6
81.33112	820	871.3
81.34131	835	871.1
81.35159	855	870.8
81.36176	844	870.6
81.37194	897	870.4
81.38213	868	870.2
81.3924	874	869.9
81.40258	873	869.7
81.41276	862	869.5
81.42294	882	869.3
81.43322	843	869.1
81.4434	894	868.9
81.45358	850	868.7
81.46375	852	868.5
81.47403	893	868.3
81.48421	855	868.1
81.49438	814	867.9
81.50457	849	867.7
81.51485	924	867.5
81.52502	861	867.4
81.53521	861	867.5
81.54539	882	867.7
81.55566	868	867.8
81.56584	870	867.9
81.57603	839	868
81.5862	829	868.1
81.59648	898	868.2
81.60666	848	868.2
81.61684	881	868.3
81.62702	854	868.3
81.6373	842	868.3
81.64748	881	868.3
81.65766	887	868.3
81.66784	823	868.3
81.67812	911	868.2
81.6883	917	868.2
81.69848	855	868.1
81.70866	857	868
81.71894	889	867.9
81.72911	813	867.8
81.73929	896	867.6
81.74947	814	867.5
81.75975	887	867.3
81.76993	878	867.1
81.78011	897	866.9
81.79029	871	866.6
81.80057	852	866.4
81.81075	830	866.2
81.82093	937	865.9
81.83111	897	865.6
81.84139	930	865.3
81.85157	853	865
81.86175	874	864.7
81.87193	869	864.3
81.88211	851	864
81.89239	912	863.6
81.90257	838	863.2
81.91275	854	862.9
81.92293	871	862.5
81.93321	841	862.1
81.94339	877	861.6
81.95357	839	861.2
81.96375	909	860.8
81.97403	825	860.4
81.9842	890	859.9
81.99438	877	859.5
82.00466	866	859
82.01485	856	858.6
82.02502	892	858.1
82.0352	879	857.6
82.04539	849	857.2
82.05566	876	856.7
82.06584	854	856.2
82.07603	913	855.7
82.0862	868	855.3
82.09649	831	854.8
82.10667	894	854.3
82.11684	864	853.7
82.12703	871	853.2
82.13731	841	852.6
82.14748	848	852
82.15767	844	851.5
82.16785	827	850.9
82.17813	825	850.3
82.18831	796	849.8
82.19849	817	849.2
82.20867	862	848.7
82.21895	878	848.1
82.22913	864	847.6
82.2393	834	847
82.24949	869	846.5
82.25977	800	845.9
82.26994	864	845.4
82.28013	837	844.8
82.29031	816	844.3
82.30059	846	843.8
82.31077	842	843.2
82.32095	861	842.7
82.33113	800	842.2
82.34141	806	841.6
82.35159	808	841.1
82.36177	807	840.6
82.37196	861	840.1
82.38223	854	839.5
82.39241	863	839
82.4026	805	838.5
82.41277	835	838
82.42306	845	837.5
82.43324	809	837
82.44342	837	836.5
82.4536	812	836
82.46388	826	835.6
82.47406	883	835.1
82.48425	827	834.6
82.49442	827	834.1
82.5047	789	833.7
82.51488	847	833.2
82.52505	797	832.8
82.53524	836	832.3
82.54552	819	831.9
82.5557	837	831.5
82.56588	782	831.1
82.57607	866	830.7
82.58634	788	830.3
82.59653	833	829.9
82.6067	922	829.5
82.61689	781	829.1
82.62717	839	828.7
82.63735	830	828.4
82.64753	799	828
82.65771	825	827.6
82.66799	829	827.3
82.67818	861	827
82.68835	781	826.6
82.69854	853	826.1
82.70882	880	825.7
82.719	813	825.2
82.72918	829	824.8
82.73936	862	824.3
82.74964	810	823.9
82.75983	825	823.5
82.77	792	823.1
82.78018	795	822.6
82.79046	842	822.2
82.80064	801	821.8
82.81082	846	821.5
82.82101	875	821.1
82.83128	848	820.7
82.84147	816	820.4
82.85165	813	820
82.86183	847	819.7
82.87211	845	819.3
82.88229	808	819
82.89247	829	818.6
82.90266	815	818.3
82.91294	812	818
82.92312	822	817.7
82.9333	806	817.4
82.94348	874	817.1
82.95377	785	816.8
82.96394	804	816.5
82.97413	794	816.2
82.98431	823	815.9
82.99459	811	815.6
83.00478	821	815.3
83.01495	864	815.1
83.02513	818	814.8
83.03542	822	814.5
83.04559	843	814.3
83.05577	767	814
83.06596	863	813.7
83.07624	838	813.5
83.08642	805	813.2
83.0966	813	812.9
83.10678	855	812.7
83.11707	829	812.4
83.12724	812	812.2
83.13743	832	811.9
83.14761	829	811.7
83.15779	874	811.4
83.16808	778	811.2
83.17825	825	810.9
83.18844	842	810.7
83.19862	816	810.4
83.2089	787	810.1
83.21909	771	809.9
83.22926	777	809.6
83.23945	807	809.4
83.24973	846	809.1
83.25991	750	808.9
83.2701	861	808.6
83.28027	820	808.3
83.29056	823	808
83.30074	776	807.7
83.31091	791	807.4
83.3211	798	807.1
83.33138	780	806.8
83.34156	813	806.5
83.35175	794	806.2
83.36192	773	805.9
83.37221	841	805.6
83.38239	803	805.3
83.39257	809	805
83.40276	776	804.7
83.41304	801	804.4
83.42322	775	804.1
83.4334	775	803.8
83.44359	825	803.5
83.45387	820	803.2
83.46405	801	802.9
83.47424	743	802.7
83.48441	810	802.4
83.4947	830	802.1
83.50488	835	801.8
83.51506	794	801.5
83.52525	781	801.2
83.53552	762	800.9
83.54571	826	800.6
83.55589	833	800.3
83.56606	845	800
83.57635	824	799.7
83.58653	836	799.5
83.59672	804	799.2
83.6069	774	798.9
83.61718	807	798.6
83.62737	797	798.3
83.63754	749	798
83.64773	745	797.7
83.65801	809	797.4
83.66819	795	797.2
83.67838	780	796.9
83.68856	801	796.6
83.69884	751	796.3
83.70902	789	796
83.71921	813	795.7
83.72939	796	795.4
83.73967	756	795.1
83.74986	768	794.8
83.76004	799	794.6
83.77022	782	794.3
83.7805	790	794
83.79069	808	793.7
83.80087	827	793.4
83.81104	780	793.1
83.82133	781	792.8
83.83151	815	792.5
83.84169	805	792.2
83.85188	818	791.9
83.86216	793	791.7
83.87234	793	791.5
83.88252	818	791.2
83.89271	780	791
83.90299	830	790.7
83.91318	790	790.5
83.92336	823	790.2
83.93354	761	790
83.94382	805	789.8
83.954	782	789.5
83.96419	766	789.3
83.97437	766	789.1
83.98466	823	788.8
83.99483	816	788.6
84.00502	799	788.4
84.01521	781	788.1
84.02549	814	787.9
84.03568	793	787.7
84.04585	741	787.4
84.05604	774	787.2
84.06632	773	787
84.07651	756	786.8
84.08668	747	786.5
84.09686	810	786.3
84.10715	813	786.1
84.11733	869	785.9
84.12752	794	785.7
84.1377	818	785.5
84.14798	813	785.3
84.15816	831	785.1
84.16835	809	784.9
84.17853	744	784.7
84.18881	730	784.5
84.199	812	784.2
84.20918	789	784
84.21937	758	783.8
84.22964	790	783.6
84.23983	793	783.4
84.25002	782	783.2
84.2602	795	783
84.27048	772	782.8
84.28066	760	782.6
84.29085	785	782.4
84.30103	780	782.2
84.31122	738	782
84.3215	814	781.8
84.33169	765	781.6
84.34186	737	781.4
84.35214	771	781.1
84.36233	756	780.9
84.37251	756	780.7
84.3827	762	780.5
84.39298	759	780.2
84.40316	824	780
84.41335	750	779.8
84.42353	795	779.5
84.43372	784	779.3
84.444	812	779.2
84.45419	782	779.2
84.46436	747	779.1
84.47455	787	779.1
84.48483	827	779
84.49502	779	779
84.5052	721	778.9
84.51539	758	778.9
84.52567	786	778.8
84.53585	813	778.7
84.54604	840	778.7
84.55622	754	778.6
84.56651	819	778.5
84.57669	790	778.4
84.58688	783	778.3
84.59705	749	778.2
84.60734	786	778.2
84.61752	778	778.1
84.6277	827	778
84.63789	754	777.9
84.64817	777	777.8
84.65836	799	777.7
84.66854	793	777.6
84.67873	807	777.6
84.68901	753	777.5
84.6992	818	777.4
84.70937	734	777.3
84.71956	766	777.3
84.72984	713	777.2
84.74003	794	777.1
84.75021	752	777.1
84.7604	783	777
84.77068	790	777
84.78087	790	776.9
84.79105	776	776.9
84.80124	790	776.9
84.81152	779	776.8
84.8217	754	776.8
84.83189	794	776.8
84.84207	766	776.8
84.85236	830	776.8
84.86253	789	776.8
84.87272	825	776.8
84.8829	774	776.8
84.89319	783	776.9
84.90337	811	776.9
84.91356	783	776.9
84.92374	779	777
84.93403	770	777.1
84.94421	806	777.1
84.9544	789	777.2
84.96458	778	777.3
84.97486	747	777.4
84.98505	815	777.5
84.99523	755	777.6
85.00542	748	777.7
85.0157	757	777.8
85.02589	798	777.8
85.03607	764	777.8
85.04626	718	777.8
85.05654	771	777.8
85.06673	749	777.8
85.07691	768	777.8
85.0871	775	777.8
85.09738	763	777.9
85.10757	788	777.9
85.11774	788	777.9
85.12793	788	777.9
85.13821	792	777.9
85.1484	791	777.9
85.15858	773	778
85.16877	787	778
85.17905	763	778
85.18924	785	778
85.19942	828	778
85.20961	774	778
85.21989	768	778
85.23008	799	778
85.24026	824	778
85.25045	780	778
85.26073	736	777.9
85.27092	776	777.9
85.28111	762	777.9
85.29129	734	777.8
85.30157	775	777.8
85.31176	782	777.7
85.32195	788	777.7
85.33213	762	777.6
85.34241	762	777.5
85.3526	765	777.5
85.36279	783	777.4
85.37296	769	777.3
85.38326	813	777.2
85.39343	794	777.1
85.40362	771	777
85.4138	748	776.9
85.42409	810	776.8
85.43427	799	776.7
85.44446	785	776.6
85.45464	761	776.5
85.46493	742	776.3
85.47511	728	776.2
85.48531	800	776.1
85.49549	805	775.9
85.50578	788	775.8
85.51596	773	775.7
85.52615	768	775.5
85.53633	791	775.4
85.54662	771	775.2
85.5568	744	775.1
85.56699	788	774.9
85.57717	740	774.8
85.58736	839	774.6
85.59764	749	774.5
85.60783	759	774.1
85.61801	762	773.7
85.62819	794	773.3
85.63849	807	772.8
85.64867	771	772.4
85.65885	789	772
85.66914	759	771.6
85.67932	801	771.1
85.68951	771	770.7
85.69969	808	770.3
85.70998	770	769.9
85.72016	818	769.4
85.73035	770	769
85.74053	778	768.6
85.75072	794	768.2
85.76101	808	767.8
85.77119	775	767.4
85.78138	715	767
85.79156	760	766.6
85.80185	755	766.2
85.81203	756	765.7
85.82222	749	765.3
85.83241	806	764.9
85.8427	786	764.5
85.85288	755	764.1
85.86307	752	763.7
85.87325	735	763.3
85.88354	760	762.9
85.89372	731	762.5
85.9039	691	762.1
85.91409	788	761.7
85.92438	739	761.3
85.93456	694	760.9
85.94475	745	760.5
85.95493	756	760.2
85.96522	757	759.8
85.9754	767	759.4
85.98559	748	759
85.99578	734	758.6
86.00607	768	758.2
86.01625	769	757.8
86.02644	755	757.4
86.03662	769	757
86.04691	769	756.6
86.0571	789	756.2
86.06728	736	755.8
86.07747	766	755.4
86.08775	763	755
86.09794	755	754.6
86.10812	769	754.2
86.11832	739	753.8
86.1286	740	753.4
86.13879	736	753
86.14897	777	752.6
86.15915	800	752.2
86.16945	738	751.8
86.17963	745	751.4
86.18981	754	751.2
86.2	748	751
86.21028	757	750.9
86.22047	730	750.7
86.23066	795	750.6
86.24084	711	750.4
86.25113	782	750.3
86.26131	779	750.1
86.27151	764	750
86.28169	802	749.8
86.29198	760	749.7
86.30216	740	749.5
86.31235	720	749.4
86.32254	729	749.2
86.33282	743	749.1
86.34301	798	748.9
86.3532	746	748.8
86.36338	724	748.7
86.37367	736	748.5
86.38386	724	748.4
86.39404	737	748.2
86.40423	737	748.1
86.41452	753	747.9
86.42471	711	747.8
86.43488	792	747.7
86.44507	758	747.5
86.45536	738	747.4
86.46555	766	747.3
86.47573	759	747.1
86.48592	752	747
86.49621	788	746.8
86.50639	762	746.7
86.51658	742	746.6
86.52676	776	746.4
86.53706	766	746.3
86.54724	738	746.1
86.55743	727	746
86.56761	742	745.8
86.5779	748	745.7
86.58809	766	745.5
86.59827	742	745.3
86.60846	710	745.2
86.61875	734	745
86.62894	735	744.8
86.63912	738	744.6
86.64931	719	744.5
86.6596	771	744.3
86.66978	722	744.1
86.67997	729	743.9
86.69016	731	743.7
86.70045	744	743.4
86.71062	730	743.2
86.72082	737	743
86.731	690	742.7
86.74129	733	742.5
86.75148	753	742.3
86.76167	813	742
86.77185	702	741.9
86.78214	771	742
86.79233	710	742
86.80251	775	742.1
86.8127	749	742.1
86.82299	747	742.2
86.83318	759	742.2
86.84336	721	742.2
86.85355	739	742.2
86.86384	683	742.2
86.87402	745	742.2
86.88422	728	742.2
86.8944	773	742.2
86.90469	780	742.2
86.91488	708	742.2
86.92506	735	742.1
86.93525	760	742.1
86.94554	801	742
86.95573	783	742
86.9659	734	741.9
86.9761	723	741.8
86.98638	739	741.8
86.99657	734	741.7
87.00676	768	741.6
87.01694	710	741.5
87.02723	759	741.4
87.03742	756	741.4
87.04761	717	741.3
87.0578	757	741.2
87.06808	763	741.1
87.07827	759	741
87.08846	743	740.9
87.09865	763	740.8
87.10893	729	740.7
87.11913	796	740.6
87.12931	705	740.5
87.1395	712	740.4
87.14969	751	740.3
87.15997	742	740.2
87.17017	745	740.1
87.18035	758	740
87.19054	744	739.9
87.20083	723	739.8
87.21101	709	739.7
87.2212	774	739.6
87.23148	768	739.5
87.24167	762	739.4
87.25186	787	739.4
87.26205	716	739.3
87.27234	726	739.2
87.28252	724	739.2
87.29271	722	739.1
87.3029	784	739.1
87.31309	766	739
87.32338	742	739
87.33356	699	738.9
87.34375	736	738.9
87.35394	726	738.8
87.36423	706	738.6
87.37442	747	738.5
87.38461	750	738.3
87.3948	788	738.2
87.40508	707	738
87.41527	771	737.9
87.42546	766	737.8
87.43565	762	737.7
87.44594	758	737.5
87.45612	668	737.4
87.46632	742	737.3
87.47649	777	737.2
87.48679	733	737.1
87.49697	777	737
87.50716	756	736.9
87.51735	693	736.8
87.52763	657	736.7
87.53783	708	736.6
87.54801	719	736.5
87.5582	704	736.4
87.56849	696	736.3
87.57868	719	736.2
87.58887	686	736.1
87.59906	714	736
87.60934	777	735.9
87.61954	797	735.8
87.62972	731	735.7
87.63992	741	735.6
87.6502	755	735.5
87.66039	727	735.4
87.67058	775	735.3
87.68076	731	735.2
87.69106	705	735.1
87.70124	745	735
87.71143	725	734.9
87.72162	791	734.8
87.73191	728	734.7
87.74209	740	734.5
87.75228	732	734.4
87.76247	697	734.3
87.77276	730	734.2
87.78294	704	734.1
87.79314	731	734
87.80332	726	733.9
87.81361	732	733.7
87.8238	710	733.6
87.83399	756	733.5
87.84418	779	733.4
87.85447	754	733.2
87.86466	750	733.1
87.87485	690	733
87.88504	723	732.8
87.89532	713	732.7
87.90552	785	732.6
87.9157	729	732.5
87.9259	752	732.3
87.93618	744	732.1
87.94637	704	731.8
87.95656	707	731.4
87.96675	705	731
87.97704	782	730.7
87.98723	714	730.3
87.99741	706	730
88.0076	713	729.6
88.01789	746	729.2
88.02808	765	728.9
88.03827	714	728.5
88.04845	718	728.2
88.05875	751	727.8
88.06893	736	727.5
88.07912	743	727.1
88.08932	736	726.7
88.0996	686	726.4
88.10979	719	726
88.11998	721	725.7
88.13017	699	725.3
88.14046	741	725
88.15065	761	724.6
88.16084	765	724.3
88.17103	703	723.9
88.18132	795	723.6
88.19151	695	723.2
88.2017	723	722.9
88.21189	741	722.6
88.22218	710	722.2
88.23237	756	721.9
88.24255	713	721.5
88.25274	711	721.2
88.26304	742	720.9
88.27322	747	720.5
88.28341	746	720.2
88.29359	677	719.9
88.30389	710	719.5
88.31408	768	719.2
88.32426	728	718.9
88.33446	750	718.6
88.34474	691	718.2
88.35493	697	717.9
88.36513	681	717.6
88.37531	730	717.3
88.3856	689	717
88.3958	723	716.7
88.40598	755	716.4
88.41618	723	716.1
88.42636	701	715.8
88.43665	690	715.5
88.44685	718	715.2
88.45703	745	714.9
88.46722	751	714.6
88.47752	687	714.3
88.4877	695	714
88.49789	695	713.7
88.50809	715	713.4
88.51837	722	713.2
88.52856	740	713.1
88.53875	715	713
88.54903	726	712.9
88.55923	685	712.8
88.56942	714	712.8
88.57961	683	712.7
88.5898	705	712.6
88.60009	702	712.5
88.61028	761	712.5
88.62047	761	712.4
88.63066	755	712.3
88.64095	681	712.2
88.65114	695	712.2
88.66133	734	712.1
88.67152	756	712.1
88.68181	752	712
88.692	749	711.9
88.70219	714	711.9
88.71238	657	711.8
88.72267	655	711.8
88.73286	689	711.7
88.74305	694	711.7
88.75324	692	711.6
88.76353	658	711.6
88.77372	690	711.5
88.78391	693	711.4
88.7941	696	711.4
88.80438	688	711.3
88.81458	693	711.3
88.82477	731	711.2
88.83495	702	711.2
88.84525	739	711.1
88.85544	731	711.1
88.86563	738	711
88.87582	696	711
88.88611	667	710.9
88.8963	729	710.8
88.90649	698	710.8
88.91668	753	710.7
88.92697	744	710.6
88.93716	740	710.6
88.94735	662	710.5
88.95754	726	710.4
88.96783	715	710.4
88.97803	713	710.3
88.98821	719	710.2
88.99841	716	710.1
89.0087	697	710.1
89.01889	675	710
89.02908	727	709.9
89.03926	679	709.8
89.04956	751	709.7
89.05975	740	709.6
89.06994	687	709.5
89.08012	700	709.4
89.09042	697	709.3
89.10061	757	709.3
89.1108	688	709.4
89.12099	739	709.6
89.13128	699	709.7
89.14147	692	709.8
89.15166	710	710
89.16185	768	710.1
89.17214	687	710.3
89.18233	687	710.4
89.19253	770	710.5
89.20272	710	710.7
89.21301	691	710.8
89.2232	705	710.9
89.23339	707	711.1
89.24358	731	711.2
89.25388	701	711.3
89.26406	723	711.4
89.27425	728	711.6
89.28445	698	711.7
89.29474	723	711.8
89.30493	722	712
89.31511	722	712.1
89.3253	691	712.2
89.33559	727	712.4
89.34579	690	712.5
89.35598	732	712.6
89.36617	695	712.8
89.37646	738	712.9
89.38665	726	713.1
89.39684	702	713.2
89.40704	691	713.3
89.41733	729	713.5
89.42751	660	713.6
89.43771	741	713.8
89.4479	740	713.9
89.45819	718	714.1
89.46838	685	714.2
89.47858	735	714.4
89.48877	707	714.5
89.49905	649	714.7
89.50925	716	714.9
89.51944	729	715
89.52963	694	715.2
89.53983	719	715.4
89.55012	736	715.5
89.5603	677	715.7
89.57049	734	715.9
89.58079	727	716.1
89.59097	778	716.3
89.60117	729	716.5
89.61136	692	716.6
89.62165	747	716.8
89.63184	729	717
89.64203	723	717.2
89.65222	747	717.4
89.66251	714	717.6
89.67271	691	717.9
89.6829	690	717.8


data_FormA
_publcif_datablock.id '{f4f314ec-37fe-481b-ad95-13299412fbac}'
_database_code_depnum_ccdc_archive 'CCDC 981714'


_refine_ls_R_factor_all   ?
#Added by publCIF




_pd_proc_ls_pref_orient_corr   'March--Dollase model G=0.9334(13)'
#Added by publCIF




_cell_special_details   ?
#Added by publCIF



_exptl_crystal_density_diffrn   1.254

_refine_ls_R_Fsqd_factor   ?
#Added by publCIF


_atom_sites_solution_hydrogens   geom
#Added by publCIF




_atom_sites_solution_secondary   ?
#Added by publCIF




_atom_sites_solution_primary   ?
#Added by publCIF




_refine_ls_structure_factor_coef   Inet
#Added by publCIF


_symmetry_space_group_name_hall   '-P 2ybc'
#Added by publCIF



loop_
  _audit_conform_dict_name
  _audit_conform_dict_version
  _audit_conform_dict_location
     cif_core.dic .  ftp://ftp.iucr.org/pub/cif_core.dic
     cif_pd.dic .  ftp://ftp.iucr.org/pub/cif_pd.dic
     
# 5. CHEMICAL DATA

_chemical_name_systematic                  
;
2-(2,6-xylidino)-5,6-dihydro-4H-1,3-thiazine hydrochloride
;

_chemical_name_common             'Xylazine hydrochloride A form'
_chemical_formula_moiety          'C12 H17 S N2 1+ Cl 1-'        
_chemical_formula_structural      ?        
_chemical_formula_analytical      ?
_chemical_formula_sum             'C12 H17 Cl N2 S'         
_chemical_formula_weight          256.79        
_chemical_melting_point           442


#==============================================================================

# 6. POWDER SPECIMEN AND CRYSTAL DATA

_space_group_crystal_system            monoclinic        
_space_group_name_H-M_alt   'P 21/c'         
_space_group_name_Hall   '-P 2ybc'
loop_                                              
      _symmetry_equiv_pos_as_xyz
'x, y, z'
'-x, -y, -z'
'-x, y+1/2, -z+1/2'
'x, -y+1/2, z+1/2'

_cell_length_a                    11.5870(3)
_cell_length_b                    8.7174(2)
_cell_length_c                    14.8813(4)
_cell_angle_alpha                 90.00000
_cell_angle_beta                  115.1475(13)
_cell_angle_gamma                 90.00000
_cell_volume                      1360.67(6)        
_cell_formula_units_Z             4        
_cell_measurement_temperature     293        



# The next three fields give the specimen dimensions in mm.  The equatorial 
# plane contains the incident and diffracted beam.

_pd_spec_size_axial               20       # perpendicular to 
                                          # equatorial plane

_pd_spec_size_thick               0.5       # parallel to 
                                          # scattering vector 
                                          # in reflection

# The next five fields are character fields that describe the specimen.

_pd_spec_mounting                 'plate holder'
_pd_spec_mount_mode               reflection       
_pd_spec_shape                    cylinder
_pd_char_colour                   'white'



#==============================================================================

# 7. EXPERIMENTAL DATA

_exptl_special_details
?

# The following item is used to identify the equipment used to record 
# the powder pattern when the diffractogram was measured at a laboratory 
# other than the authors' home institution, e.g. when neutron or synchrotron
# radiation is used.

_diffrn_ambient_temperature       293       
_diffrn_source                    'sealed X-ray tube'       
_diffrn_source_target             ?
_diffrn_source_type               ?
_diffrn_radiation_type            'Cu K\a'       
_diffrn_measurement_device_type   'Bruker D8'       
_diffrn_detector                  'SolX'       
_diffrn_detector_type             ?       # make or model of detector

_pd_meas_scan_method              step       # options are 'step', 'cont',
                                          # 'tof', 'fixed' or
                                          # 'disp' (= dispersive)
_pd_meas_special_details
?

# The following six items are used for angular dispersive measurements only.

_diffrn_radiation_wavelength      1.54184        
_diffrn_radiation_monochromator   'none'        

#  The following four items give details of the measured (not processed)
#  powder pattern.  Angles are in degrees.

_pd_meas_number_of_points         8701
_pd_meas_2theta_range_min         3.00        
_pd_meas_2theta_range_max         90.00        
_pd_meas_2theta_range_inc         0.01        


#==============================================================================

# 8. REFINEMENT DATA

# Use the next field to give any special details about the fitting of the
# powder pattern.

_pd_proc_ls_special_details
?

# The next three items are given as text.

_pd_proc_ls_profile_function      'Pseudo Voigt'        
_pd_proc_ls_background_function   'linear extrapolation'

_pd_proc_ls_prof_R_factor         0.071        
_pd_proc_ls_prof_wR_factor        0.091        
_pd_proc_ls_prof_wR_expected      0.066        
_refine_ls_R_I_factor             0.037

_refine_special_details

;
Atomic parameters for (S1, C2, C3, C4, N5, C6, N7) and (C8, C9, C10, C11, C12,
C13, C14, C15) were refined as a rigid bodies. Final refinements were
performed with hydrogen atoms. The preferred orientation was included in the
Rietveld refinement using the March--Dollase model with direction [-102].
;

_refine_ls_matrix_type            full        
_refine_ls_weighting_scheme   calc  
_refine_ls_weighting_details      ?
_refine_ls_hydrogen_treatment     noref                 
_refine_ls_number_parameters      165        
_refine_ls_number_restraints      54        
_refine_ls_number_constraints     39        

# The following item is the same as CHI, the square root of 'CHI squared'
_refine_ls_goodness_of_fit_all    1.34       
      
_refine_ls_restrained_S_all       ?        
_refine_ls_shift/su_max           0.01        
_refine_ls_shift/su_mean          ?
     

# Each refinement must be accompanied by a listing of the powder data
# in CIF format. Each listing should be sent as a separate file consisting 
# of one data block containing a single powder profile. The value of 
# _pd_block_diffractogram_id is used to associate each refinement with 
# its corresponding powder profile, since it must match the value
# of _pd_block_id in the file containing the powder data. A template 
# for supplying powder data in CIF format is available by ftp at
# ftp://ftp.iucr.org/pub/rietdataform.cif and an example is given 
# at ftp://ftp.iucr.org/pub/rietdataxmpl.cif.

_pd_block_diffractogram_id        FormA  


# Give appropriate details in the next two text fields.

_pd_proc_info_excluded_regions    ?        
_pd_proc_info_data_reduction      ?

# The following items are used to identify the programs used.

_computing_data_collection        'XRD Commander'        
_computing_cell_refinement        'FOX 1.9.7.0'                   
_computing_structure_solution     'FOX 1.9.7.0'        
_computing_structure_refinement   FullProf       
_computing_molecular_graphics     'Mercury 3.1'
_computing_publication_material   publCIF


#==============================================================================


# 9. ATOMIC COORDINATES AND DISPLACEMENT PARAMETERS

loop_
    _atom_site_label
    _atom_site_fract_x
    _atom_site_fract_y
    _atom_site_fract_z
    _atom_site_U_iso_or_equiv
    _atom_site_occupancy
    _atom_site_adp_type              # Not in version 2.0.1
    _atom_site_type_symbol
 S1  0.3208(3)  0.17637(12)  0.76667(12)  0.01267  1.00000 Uiso S   
 C2  0.48047(12)  0.12307(12)  0.85937(12)  0.01267  1.00000 Uiso C   
 C3  0.53247(12)  0.23867(12)  0.94357(12)  0.01267  1.00000 Uiso C   
 C4  0.54997(12)  0.39067(12)  0.90437(12)  0.01267  1.00000 Uiso C   
 N5  0.42787(12)  0.45487(12)  0.83247(12)  0.01267  1.00000 Uiso N   
 C6  0.33157(12)  0.37717(12)  0.76917(12)  0.01267  1.00000 Uiso C   
 N7  0.24067(12)  0.44947(12)  0.69507(12)  0.01267  1.00000 Uiso N   
 C8  0.1235(6)  0.37383(13)  0.62973(13)  0.01267  1.00000 Uiso C   
 C9  0.12363(13)  0.30523(13)  0.54333(13)  0.01267  1.00000 Uiso C   
 C10  0.01133(13)  0.23503(13)  0.47683(13)  0.01267  1.00000 Uiso C   
 C11 -0.09567(13)  0.23433(13)  0.49703(13)  0.01267  1.00000 Uiso C   
 C12 -0.09247(13)  0.30263(13)  0.58243(13)  0.01267  1.00000 Uiso C   
 C13  0.01903(13)  0.37383(13)  0.65143(13)  0.01267  1.00000 Uiso C   
 C14  0.02063(13)  0.44833(13)  0.74373(13)  0.01267  1.00000 Uiso C   
 C15  0.23913(13)  0.31243(13)  0.52123(13)  0.01267  1.00000 Uiso C   
 H21  0.4704  0.0274  0.8855  0.0152   1.00000 Uiso H   
 H22  0.5396  0.1131  0.8310  0.0152  1.00000 Uiso H   
 H31  0.6132  0.2045  0.9931  0.0152  1.00000 Uiso H   
 H32  0.4750  0.2501  0.9736  0.0152  1.00000 Uiso H   
 H41  0.5882  0.4609  0.9592  0.0152  1.00000 Uiso H   
 H42  0.6060  0.3789  0.8734  0.0152  1.00000 Uiso H   
 H10  0.0094  0.1894  0.4197  0.0152  1.00000 Uiso H   
 H11 -0.1704  0.1880  0.4532  0.0152  1.00000 Uiso H   
 H12 -0.1652  0.3028  0.5960  0.0152  1.00000 Uiso H   
 H141 -0.0587  0.4374  0.7463  0.0152  1.00000 Uiso H   
 H142  0.0860  0.4029  0.8025  0.0152  1.00000 Uiso H   
 H143  0.0405  0.5562  0.7451  0.0152  1.00000 Uiso H   
 H151  0.2230  0.2623  0.4621  0.0152  1.00000 Uiso H   
 H152  0.3109  0.2659  0.5751  0.0152  1.00000 Uiso H   
 H153  0.2611  0.4182  0.5174  0.0152  1.00000 Uiso H   
 H51  0.4194  0.5641  0.8331  0.0152  1.00000 Uiso H   
 H71  0.2400  0.5593  0.6957  0.0152  1.00000 Uiso H   
 Cl16  0.3242(3)  0.7843(4)  0.7759(2)  0.01267  1.00000 Uiso Cl  
 
#==============================================================================


# 10. MOLECULAR GEOMETRY

_geom_special_details   ?

loop_
   _geom_bond_atom_site_label_1
   _geom_bond_atom_site_label_2
   _geom_bond_distance
   _geom_bond_site_symmetry_2
   _geom_bond_publ_flag

S1 C2 1.837(3) . ?
S1 C6 1.7542(15) . ?
N5 C4 1.474(2) . ?
N5 C6 1.303(2) . ?
N7 C6 1.317(2) . ?
N7 C8 1.450(5) . ?
C2 C3 1.519(2) . ?
C3 C4 1.4959(17) . ?
C8 C9 1.419(4) . ?
C8 C13 1.379(7) . ?
C9 C15 1.509(2) . ?
C9 C10 1.397(2) . ?
C10 C11 1.394(2) . ?
C11 C12 1.390(2) . ?
C12 C13 1.408(2) . ?
C13 C14 1.512(2) . ?
C2 H21 0.95 . ?
C2 H22 0.95 . ?
C3 H31 0.96 . ?
C3 H32 0.95 . ?
C4 H41 0.96 . ?
C4 H42 0.95 . ?
C10 H10 0.93 . ?
C11 H11 0.93 . ?
C12 H12 0.95 . ?
C14 H141 0.94 . ?
C14 H142 0.97 . ?
C14 H143 0.97 . ?
C15 H151 0.93 . ?
C15 H152 0.97 . ?
C15 H153 0.96 . ?
N5 H51 0.96 . ?
N7 H71 0.96 . ?


loop_
 _geom_angle_atom_site_label_1
 _geom_angle_site_symmetry_1
 _geom_angle_atom_site_label_2
 _geom_angle_site_symmetry_2
 _geom_angle_atom_site_label_3
 _geom_angle_site_symmetry_3
 _geom_angle
 _geom_angle_publ_flag
C2 . S1 . C6 . 101.34(13) yes
C4 . N5 . C6 . 126.18(10) yes
C6 . N7 . C8 . 122.11(11) yes
C4 . N5 . H51 . 116.0 yes
C6 . N5 . H51 . 118.0 yes
C6 . N7 . H71 . 118.0 yes
C8 . N7 . H71 . 117.0 yes
S1 . C2 . C3 . 111.82(10) yes
C2 . C3 . C4 . 109.75(13) yes
N5 . C4 . C3 . 111.84(12) yes
N5 . C6 . N7 . 119.40(11) yes
S1 . C6 . N5 . 124.43(14) yes
S1 . C6 . N7 . 115.80(13) yes
N7 . C8 . C13 . 120.5(2) yes
C9 . C8 . C13 . 123.5(3) yes
N7 . C8 . C9 . 116.0(5) yes
C8 . C9 . C10 . 117.9(3) yes
C8 . C9 . C15 . 121.5(3) yes
C10 . C9 . C15 . 120.60(15) yes
C9 . C10 . C11 . 119.67(15) yes
C10 . C11 . C12 . 120.98(15) yes
C11 . C12 . C13 . 121.04(16) yes
C8 . C13 . C14 . 122.65(16) yes
C12 . C13 . C14 . 120.34(15) yes
C8 . C13 . C12 . 117.01(16) yes
S1 . C2 . H21 . 106.0 yes
S1 . C2 . H22 . 112.0 yes
C3 . C2 . H21 . 109.0 yes
H151 . C15 . H153 . 110.0 yes
C3 . C2 . H22 . 109.0 yes
H21 . C2 . H22 . 110.0 yes
C2 . C3 . H31 . 110.0 yes
C2 . C3 . H32 . 110.0 yes
C4 . C3 . H31 . 109.0 yes
C4 . C3 . H32 . 109.0 yes
H31 . C3 . H32 . 109.0 yes
N5 . C4 . H41 . 109.0 yes
N5 . C4 . H42 . 109.0 yes
C3 . C4 . H41 . 109.0 yes
C3 . C4 . H42 . 109.0 yes
H41 . C4 . H42 . 108.0 yes
C9 . C10 . H10 . 119.0 yes
C11 . C10 . H10 . 121.0 yes
C10 . C11 . H11 . 120.0 yes
C12 . C11 . H11 . 119.0 yes
C11 . C12 . H12 . 121.0 yes
C13 . C12 . H12 . 118.0 yes
C13 . C14 . H141 . 111.0 yes
C13 . C14 . H142 . 110.0 yes
C13 . C14 . H143 . 110.0 yes
H141 . C14 . H142 . 109.0 yes
H141 . C14 . H143 . 109.0 yes
H142 . C14 . H143 . 107.0 yes
C9 . C15 . H151 . 110.0 yes
C9 . C15 . H152 . 109.0 yes
C9 . C15 . H153 . 109.0 yes
H151 . C15 . H152 . 110.0 yes
H152 . C15 . H153 . 107.0 yes


#==============================================================================
# Additional structures (sections 5-10 and associated data_? identifiers)
# may be added at this point.
#==============================================================================

# The following lines are used to test the character set of files sent by
# network email or other means. They are not part of the CIF data set.
# abcdefghijklmnopqrstuvwxyzABCDEFGHIJKLMNOPQRSTUVWXYZ0123456789
# !@#$%^&*()_+{}:"~<>?|\-=[];'`,./


#=================================================================




# powder data simulated using PLATON:

data_FormA_simulated_1.54184

_publcif_pd_cifplot 'simulated 2021-03-25'

