data_I_1.5K
_pd_block_id    Tl2BeF4_1.5K
loop_
_pd_proc_point_id
_pd_proc_2theta_corrected
_pd_proc_intensity_total
_pd_calc_intensity_total
_pd_proc_intensity_bkg_calc
    56    10.0511    34(6)                       32.4113           32.3909
    57    10.1011    33(6)                       32.3899           32.3690
    58    10.1511    35(6)                       32.3680           32.3467
    59    10.2011    37(6)                       32.3484           32.3240
    60    10.2511    38(6)                       32.3257           32.3008
    61    10.3011    31(6)                       32.3027           32.2772
    62    10.3511    29(5)                       32.2793           32.2532
    63    10.4011    34(6)                       32.2555           32.2288
    64    10.4511    31(6)                       32.2315           32.2041
    65    10.5011    35(6)                       32.2071           32.1790
    66    10.5511    37(6)                       32.1825           32.1536
    67    10.6011    31(6)                       32.1578           32.1279
    68    10.6511    36(6)                       32.1329           32.1019
    69    10.7011    38(6)                       32.1081           32.0755
    70    10.7511    39(6)                       32.0837           32.0489
    71    10.8011    36(6)                       32.0609           32.0222
    72    10.8511    30(5)                       32.0412           31.9951
    73    10.9011    33(6)                       32.0276           31.9679
    74    10.9511    32(6)                       32.0239           31.9405
    75    11.0011    32(6)                       32.0337           31.9129
    76    11.0511    34(6)                       32.0586           31.8850
    77    11.1011    30(5)                       32.0964           31.8571
    78    11.1511    28(5)                       32.1407           31.8290
    79    11.2011    36(6)                       32.1834           31.8008
    80    11.2511    36(6)                       32.2180           31.7724
    81    11.3011    34(6)                       32.2410           31.7439
    82    11.3511    30(5)                       32.2481           31.7153
    83    11.4011    36(6)                       32.2313           31.6867
    84    11.4511    34(6)                       32.1807           31.6580
    85    11.5011    32(6)                       32.0918           31.6292
    86    11.5511    35(6)                       31.9727           31.6004
    87    11.6011    31(6)                       31.8419           31.5716
    88    11.6511    29(5)                       31.7214           31.5428
    89    11.7011    32(6)                       31.6256           31.5139
    90    11.7511    34(6)                       31.5578           31.4850
    91    11.8011    29(5)                       31.5120           31.4561
    92    11.8511    32(6)                       31.4823           31.4273
    93    11.9011    29(5)                       31.4553           31.3984
    94    11.9511    34(6)                       31.4287           31.3696
    95    12.0011    32(6)                       31.4023           31.3409
    96    12.0511    32(6)                       31.3760           31.3122
    97    12.1011    29(5)                       31.3501           31.2835
    98    12.1511    30(5)                       31.3246           31.2550
    99    12.2011    30(5)                       31.2993           31.2265
   100    12.2511    34(6)                       31.2744           31.1982
   101    12.3011    36(6)                       31.2499           31.1700
   102    12.3511    30(5)                       31.2258           31.1418
   103    12.4011    27(5)                       31.2023           31.1137
   104    12.4511    31(6)                       31.1796           31.0858
   105    12.5011    31(6)                       31.1589           31.0580
   106    12.5511    31(6)                       31.1383           31.0304
   107    12.6011    30(5)                       31.1191           31.0029
   108    12.6511    28(5)                       31.1020           30.9755
   109    12.7011    29(5)                       31.0875           30.9482
   110    12.7511    29(5)                       31.0768           30.9212
   111    12.8011    31(6)                       31.0710           30.8943
   112    12.8511    32(6)                       31.0725           30.8676
   113    12.9011    36(6)                       31.0866           30.8411
   114    12.9511    31(6)                       31.1257           30.8148
   115    13.0011    34(6)                       31.2196           30.7887
   116    13.0511    37(6)                       31.4336           30.7628
   117    13.1011    37(6)                       31.8919           30.7371
   118    13.1511    33(6)                       32.7948           30.7116
   119    13.2011    39(6)                       34.4019           30.6864
   120    13.2511    39(6)                       36.9562           30.6614
   121    13.3011    47(7)                       40.5638           30.6365
   122    13.3511    49(7)                       45.1026           30.6119
   123    13.4011    57(8)                       50.2551           30.5876
   124    13.4511    67(8)                       55.6700           30.5635
   125    13.5011    64(8)                       61.0913           30.5397
   126    13.5511    70(8)                       66.2674           30.5162
   127    13.6011    71(8)                       70.6831           30.4929
   128    13.6511    69(8)                       73.4691           30.4698
   129    13.7011    69(8)                       73.7914           30.4470
   130    13.7511    64(8)                       71.4760           30.4245
   131    13.8011    62(8)                       67.2401           30.4022
   132    13.8511    62(8)                       62.2450           30.3802
   133    13.9011    53(7)                       57.3503           30.3585
   134    13.9511    53(7)                       52.7385           30.3372
   135    14.0011    46(7)                       48.1866           30.3162
   136    14.0511    36(6)                       43.5961           30.2954
   137    14.1011    41(6)                       39.2446           30.2748
   138    14.1511    33(6)                       35.6103           30.2546
   139    14.2011    32(6)                       33.0258           30.2347
   140    14.2511    27(5)                       31.4889           30.2151
   141    14.3011    35(6)                       30.7394           30.1958
   142    14.3511    33(6)                       30.4477           30.1768
   143    14.4011    25(5)                       30.3607           30.1582
   144    14.4511    30(5)                       30.3405           30.1398
   145    14.5011    31(6)                       30.3334           30.1217
   146    14.5511    31(6)                       30.3262           30.1040
   147    14.6011    29(5)                       30.3180           30.0866
   148    14.6511    30(5)                       30.3097           30.0695
   149    14.7011    32(6)                       30.3020           30.0528
   150    14.7511    28(5)                       30.2936           30.0364
   151    14.8011    28(5)                       30.2853           30.0203
   152    14.8511    27(5)                       30.2774           30.0046
   153    14.9011    28(5)                       30.2703           29.9892
   154    14.9511    25(5)                       30.2642           29.9741
   155    15.0011    28(5)                       30.2596           29.9593
   156    15.0511    32(6)                       30.2566           29.9447
   157    15.1011    28(5)                       30.2559           29.9307
   158    15.1511    31(6)                       30.2619           29.9170
   159    15.2011    28(5)                       30.2663           29.9036
   160    15.2511    30(5)                       30.2739           29.8905
   161    15.3011    31(6)                       30.2852           29.8777
   162    15.3511    32(6)                       30.3090           29.8652
   163    15.4011    29(5)                       30.3310           29.8532
   164    15.4511    26(5)                       30.3604           29.8414
   165    15.5011    32(6)                       30.3996           29.8301
   166    15.5511    30(5)                       30.4519           29.8190
   167    15.6011    29(5)                       30.5219           29.8083
   168    15.6511    29(5)                       30.6165           29.7979
   169    15.7011    32(6)                       30.7484           29.7877
   170    15.7511    32(6)                       30.9456           29.7780
   171    15.8011    34(6)                       31.2735           29.7686
   172    15.8511    39(6)                       31.8829           29.7596
   173    15.9011    36(6)                       33.0892           29.7509
   174    15.9511    43(7)                       35.4656           29.7426
   175    16.0011    53(7)                       39.8905           29.7345
   176    16.0511    60(8)                       47.4587           29.7268
   177    16.1011    74(9)                       59.2262           29.7195
   178    16.1511    96(10)                      75.9217           29.7125
   179    16.2011    108(10)                     97.8980           29.7058
   180    16.2511    119(11)                    125.2587           29.6994
   181    16.3011    149(12)                    157.9722           29.6934
   182    16.3511    179(13)                    195.1055           29.6877
   183    16.4011    221(15)                    233.7000           29.6823
   184    16.4511    249(16)                    268.6241           29.6772
   185    16.5011    280(17)                    294.4409           29.6723
   186    16.5511    295(17)                    308.0070           29.6679
   187    16.6011    281(17)                    308.9858           29.6637
   188    16.6511    270(16)                    297.8492           29.6600
   189    16.7011    243(16)                    274.2336           29.6566
   190    16.7511    204(14)                    238.1364           29.6534
   191    16.8011    172(13)                    192.6330           29.6505
   192    16.8511    142(12)                    144.4638           29.6479
   193    16.9011    113(11)                    101.5589           29.6456
   194    16.9511    82(9)                       69.3905           29.6436
   195    17.0011    60(8)                       49.0854           29.6420
   196    17.0511    41(6)                       38.2795           29.6408
   197    17.1011    35(6)                       33.4023           29.6397
   198    17.1511    29(5)                       31.4955           29.6389
   199    17.2011    30(5)                       30.8120           29.6385
   200    17.2511    29(5)                       30.5666           29.6382
   201    17.3011    29(5)                       30.4790           29.6383
   202    17.3511    28(5)                       30.4590           29.6386
   203    17.4011    32(6)                       30.4713           29.6392
   204    17.4511    33(6)                       30.4978           29.6402
   205    17.5011    30(5)                       30.5301           29.6414
   206    17.5511    30(5)                       30.5684           29.6429
   207    17.6011    31(6)                       30.6189           29.6446
   208    17.6511    29(5)                       30.6978           29.6466
   209    17.7011    32(6)                       30.8430           29.6488
   210    17.7511    37(6)                       31.1448           29.6512
   211    17.8011    35(6)                       31.8054           29.6539
   212    17.8511    37(6)                       33.2182           29.6569
   213    17.9011    40(6)                       36.0251           29.6602
   214    17.9511    42(6)                       41.0578           29.6636
   215    18.0011    56(7)                       49.0732           29.6674
   216    18.0511    56(7)                       60.3360           29.6713
   217    18.1011    79(9)                       74.2996           29.6755
   218    18.1511    98(10)                      89.6802           29.6799
   219    18.2011    127(11)                    104.8836           29.6845
   220    18.2511    150(12)                    118.2949           29.6893
   221    18.3011    159(13)                    128.0781           29.6943
   222    18.3511    161(13)                    131.9192           29.6996
   223    18.4011    158(13)                    127.6920           29.7050
   224    18.4511    126(11)                    115.0401           29.7107
   225    18.5011    96(10)                      96.3469           29.7165
   226    18.5511    75(9)                       75.9403           29.7225
   227    18.6011    60(8)                       58.0766           29.7288
   228    18.6511    47(7)                       45.1596           29.7352
   229    18.7011    40(6)                       37.3245           29.7418
   230    18.7511    30(5)                       33.2832           29.7485
   231    18.8011    29(5)                       31.4705           29.7554
   232    18.8511    33(6)                       30.7330           29.7625
   233    18.9011    26(5)                       30.4443           29.7698
   234    18.9511    27(5)                       30.3356           29.7772
   235    19.0011    31(6)                       30.3097           29.7847
   236    19.0511    34(6)                       30.3377           29.7923
   237    19.1011    28(5)                       30.4225           29.8002
   238    19.1511    29(5)                       30.5907           29.8082
   239    19.2011    30(5)                       30.8859           29.8163
   240    19.2511    29(5)                       31.3503           29.8244
   241    19.3011    31(6)                       32.0001           29.8328
   242    19.3511    33(6)                       32.8049           29.8412
   243    19.4011    31(6)                       33.6921           29.8498
   244    19.4511    40(6)                       34.5694           29.8584
   245    19.5011    39(6)                       35.3407           29.8672
   246    19.5511    38(6)                       35.8881           29.8761
   247    19.6011    40(6)                       36.0741           29.8851
   248    19.6511    39(6)                       35.7867           29.8942
   249    19.7011    36(6)                       35.0332           29.9033
   250    19.7511    33(6)                       33.9805           29.9126
   251    19.8011    33(6)                       32.8937           29.9219
   252    19.8511    31(6)                       32.0238           29.9312
   253    19.9011    30(5)                       31.5356           29.9407
   254    19.9511    33(6)                       31.5311           29.9501
   255    20.0011    33(6)                       32.1453           29.9596
   256    20.0511    34(6)                       33.6283           29.9692
   257    20.1011    39(6)                       36.2974           29.9788
   258    20.1511    43(7)                       40.4202           29.9885
   259    20.2011    48(7)                       45.9879           29.9982
   260    20.2511    59(8)                       52.6207           30.0078
   261    20.3011    60(8)                       59.6491           30.0175
   262    20.3511    66(8)                       66.3036           30.0272
   263    20.4011    77(9)                       71.7314           30.0370
   264    20.4511    81(9)                       74.8890           30.0468
   265    20.5011    80(9)                       74.6684           30.0565
   266    20.5511    79(9)                       70.5217           30.0662
   267    20.6011    66(8)                       63.0900           30.0759
   268    20.6511    55(7)                       54.1250           30.0856
   269    20.7011    46(7)                       45.6685           30.0953
   270    20.7511    37(6)                       39.1462           30.1051
   271    20.8011    34(6)                       34.9401           30.1147
   272    20.8511    31(6)                       32.6337           30.1242
   273    20.9011    28(5)                       31.5356           30.1339
   274    20.9511    29(5)                       31.0677           30.1434
   275    21.0011    31(6)                       30.8854           30.1529
   276    21.0511    30(5)                       30.8250           30.1623
   277    21.1011    27(5)                       30.8186           30.1717
   278    21.1511    31(6)                       30.8382           30.1810
   279    21.2011    30(5)                       30.8850           30.1902
   280    21.2511    27(5)                       30.9263           30.1993
   281    21.3011    28(5)                       30.9748           30.2083
   282    21.3511    32(6)                       31.0334           30.2173
   283    21.4011    29(5)                       31.1108           30.2261
   284    21.4511    30(5)                       31.2304           30.2349
   285    21.5011    26(5)                       31.4477           30.2436
   286    21.5511    28(5)                       31.8800           30.2522
   287    21.6011    29(5)                       32.7357           30.2606
   288    21.6511    33(6)                       34.3134           30.2689
   289    21.7011    37(6)                       36.9318           30.2772
   290    21.7511    41(6)                       40.7714           30.2853
   291    21.8011    42(6)                       45.7409           30.2933
   292    21.8511    44(7)                       51.4403           30.3011
   293    21.9011    49(7)                       57.2784           30.3088
   294    21.9511    59(8)                       62.5890           30.3163
   295    22.0011    60(8)                       66.6124           30.3237
   296    22.0511    63(8)                       68.4958           30.3310
   297    22.1011    62(8)                       67.6312           30.3381
   298    22.1511    58(8)                       64.2343           30.3451
   299    22.2011    53(7)                       59.5169           30.3519
   300    22.2511    51(7)                       55.1641           30.3585
   301    22.3011    51(7)                       52.5151           30.3648
   302    22.3511    50(7)                       52.0520           30.3711
   303    22.4011    58(8)                       53.5785           30.3771
   304    22.4511    63(8)                       56.7208           30.3829
   305    22.5011    74(9)                       61.4964           30.3886
   306    22.5511    86(9)                       68.7551           30.3942
   307    22.6011    99(10)                      80.3835           30.3995
   308    22.6511    114(11)                     99.0010           30.4045
   309    22.7011    136(12)                    127.1524           30.4094
   310    22.7511    188(14)                    166.3144           30.4141
   311    22.8011    235(15)                    215.9415           30.4185
   312    22.8511    290(17)                    272.5477           30.4228
   313    22.9011    351(19)                    329.2769           30.4269
   314    22.9511    393(20)                    377.0263           30.4306
   315    23.0011    407(20)                    407.2730           30.4342
   316    23.0511    409(20)                    414.5476           30.4375
   317    23.1011    381(20)                    396.6823           30.4405
   318    23.1511    366(19)                    354.8021           30.4433
   319    23.2011    328(18)                    294.6075           30.4460
   320    23.2511    263(16)                    226.5179           30.4484
   321    23.3011    201(14)                    162.8432           30.4505
   322    23.3511    144(12)                    113.5621           30.4523
   323    23.4011    104(10)                     83.7115           30.4540
   324    23.4511    73(9)                       74.2193           30.4553
   325    23.5011    85(9)                       84.8460           30.4564
   326    23.5511    110(10)                    116.0245           30.4572
   327    23.6011    149(12)                    167.9551           30.4578
   328    23.6511    217(15)                    238.1815           30.4580
   329    23.7011    297(17)                    320.3743           30.4580
   330    23.7511    378(19)                    405.3148           30.4577
   331    23.8011    448(21)                    482.2910           30.4572
   332    23.8511    475(22)                    538.9547           30.4563
   333    23.9011    490(22)                    562.0301           30.4552
   334    23.9511    484(22)                    543.4534           30.4538
   335    24.0011    462(21)                    489.0900           30.4521
   336    24.0511    430(21)                    419.7801           30.4502
   337    24.1011    398(20)                    361.4660           30.4479
   338    24.1511    373(19)                    331.9456           30.4451
   339    24.2011    360(19)                    333.8675           30.4423
   340    24.2511    365(19)                    357.0530           30.4391
   341    24.3011    398(20)                    384.9247           30.4357
   342    24.3511    428(21)                    399.7406           30.4319
   343    24.4011    403(20)                    387.3487           30.4278
   344    24.4511    357(19)                    343.3070           30.4234
   345    24.5011    286(17)                    275.7794           30.4187
   346    24.5511    207(14)                    201.3424           30.4137
   347    24.6011    140(12)                    136.2364           30.4084
   348    24.6511    90(9)                       89.2937           30.4027
   349    24.7011    59(8)                       60.6847           30.3968
   350    24.7511    38(6)                       45.5474           30.3905
   351    24.8011    31(6)                       38.3246           30.3839
   352    24.8511    30(5)                       35.0648           30.3770
   353    24.9011    30(5)                       33.6064           30.3698
   354    24.9511    27(5)                       32.9446           30.3623
   355    25.0011    30(5)                       32.6318           30.3544
   356    25.0511    30(5)                       32.4832           30.3462
   357    25.1011    28(5)                       32.4146           30.3377
   358    25.1511    28(5)                       32.4157           30.3288
   359    25.2011    26(5)                       32.5279           30.3197
   360    25.2511    33(6)                       32.8298           30.3102
   361    25.3011    30(5)                       33.4138           30.3004
   362    25.3511    31(6)                       34.3429           30.2903
   363    25.4011    33(6)                       35.6086           30.2799
   364    25.4511    34(6)                       37.1261           30.2691
   365    25.5011    37(6)                       38.7766           30.2580
   366    25.5511    38(6)                       40.4608           30.2466
   367    25.6011    38(6)                       42.1234           30.2348
   368    25.6511    37(6)                       43.7712           30.2227
   369    25.7011    42(6)                       45.5261           30.2103
   370    25.7511    43(7)                       47.6318           30.1975
   371    25.8011    49(7)                       50.3207           30.1845
   372    25.8511    51(7)                       53.6204           30.1712
   373    25.9011    56(7)                       57.2278           30.1575
   374    25.9511    54(7)                       60.4597           30.1435
   375    26.0011    51(7)                       62.2976           30.1292
   376    26.0511    53(7)                       61.7089           30.1144
   377    26.1011    53(7)                       58.2823           30.0995
   378    26.1511    47(7)                       52.6611           30.0843
   379    26.2011    41(6)                       46.2761           30.0687
   380    26.2511    39(6)                       40.5991           30.0528
   381    26.3011    31(6)                       36.4710           30.0365
   382    26.3511    29(5)                       33.9727           30.0200
   383    26.4011    31(6)                       32.7294           30.0032
   384    26.4511    30(5)                       32.3353           29.9861
   385    26.5011    32(6)                       32.5925           29.9686
   386    26.5511    33(6)                       33.6229           29.9507
   387    26.6011    32(6)                       35.8140           29.9327
   388    26.6511    38(6)                       39.6536           29.9143
   389    26.7011    42(6)                       45.4705           29.8956
   390    26.7511    59(8)                       53.1662           29.8766
   391    26.8011    61(8)                       62.0894           29.8573
   392    26.8511    68(8)                       71.2383           29.8377
   393    26.9011    87(9)                       79.3821           29.8179
   394    26.9511    94(10)                      85.1670           29.7977
   395    27.0011    101(10)                     87.5382           29.7772
   396    27.0511    99(10)                      86.8479           29.7565
   397    27.1011    95(10)                      85.7922           29.7355
   398    27.1511    98(10)                      88.8611           29.7142
   399    27.2011    105(10)                    100.3342           29.6926
   400    27.2511    130(11)                    122.1741           29.6707
   401    27.3011    156(12)                    153.2850           29.6486
   402    27.3511    198(14)                    190.1847           29.6262
   403    27.4011    228(15)                    227.6878           29.6036
   404    27.4511    248(16)                    258.9324           29.5807
   405    27.5011    264(16)                    276.3920           29.5575
   406    27.5511    254(16)                    275.4497           29.5341
   407    27.6011    237(15)                    257.6223           29.5104
   408    27.6511    203(14)                    229.5312           29.4864
   409    27.7011    187(14)                    198.8895           29.4621
   410    27.7511    163(13)                    171.4663           29.4377
   411    27.8011    137(12)                    150.4845           29.4131
   412    27.8511    132(11)                    137.2422           29.3881
   413    27.9011    126(11)                    131.4431           29.3629
   414    27.9511    121(11)                    130.9928           29.3375
   415    28.0011    122(11)                    132.0871           29.3119
   416    28.0511    128(11)                    130.8212           29.2861
   417    28.1011    120(11)                    126.2166           29.2601
   418    28.1511    118(11)                    122.4173           29.2339
   419    28.2011    124(11)                    127.6656           29.2074
   420    28.2511    145(12)                    150.2754           29.1807
   421    28.3011    200(14)                    193.9796           29.1538
   422    28.3511    304(17)                    255.6432           29.1267
   423    28.4011    413(20)                    326.4194           29.0994
   424    28.4511    532(23)                    394.2267           29.0720
   425    28.5011    572(24)                    444.8247           29.0443
   426    28.5511    537(23)                    463.0841           29.0165
   427    28.6011    468(22)                    438.9928           28.9885
   428    28.6511    367(19)                    376.2143           28.9603
   429    28.7011    273(17)                    293.0072           28.9319
   430    28.7511    198(14)                    213.0314           28.9034
   431    28.8011    152(12)                    153.4798           28.8747
   432    28.8511    117(11)                    119.1538           28.8459
   433    28.9011    94(10)                     104.9350           28.8169
   434    28.9511    95(10)                     101.9638           28.7878
   435    29.0011    95(10)                     102.2038           28.7586
   436    29.0511    103(10)                    100.4155           28.7292
   437    29.1011    101(10)                     95.2091           28.6996
   438    29.1511    99(10)                      89.2973           28.6699
   439    29.2011    101(10)                     88.0556           28.6402
   440    29.2511    105(10)                     96.6727           28.6103
   441    29.3011    123(11)                    117.3489           28.5803
   442    29.3511    138(12)                    148.1923           28.5502
   443    29.4011    167(13)                    184.1201           28.5200
   444    29.4511    192(14)                    218.3322           28.4897
   445    29.5011    205(14)                    242.9267           28.4593
   446    29.5511    214(15)                    249.7643           28.4288
   447    29.6011    218(15)                    233.9466           28.3982
   448    29.6511    192(14)                    198.1036           28.3675
   449    29.7011    149(12)                    152.1509           28.3368
   450    29.7511    112(11)                    108.1021           28.3061
   451    29.8011    76(9)                       74.1877           28.2754
   452    29.8511    53(7)                       52.4649           28.2446
   453    29.9011    41(6)                       40.5448           28.2137
   454    29.9511    35(6)                       34.7615           28.1827
   455    30.0011    33(6)                       32.2224           28.1517
   456    30.0511    34(6)                       31.2362           28.1208
   457    30.1011    31(6)                       30.9671           28.0897
   458    30.1511    32(6)                       31.0286           28.0587
   459    30.2011    30(5)                       31.2515           28.0276
   460    30.2511    31(6)                       31.5884           27.9965
   461    30.3011    36(6)                       32.0755           27.9655
   462    30.3511    35(6)                       32.8123           27.9344
   463    30.4011    34(6)                       33.9257           27.9034
   464    30.4511    33(6)                       35.5020           27.8724
   465    30.5011    39(6)                       37.5292           27.8413
   466    30.5511    41(6)                       39.8647           27.8103
   467    30.6011    41(6)                       42.3520           27.7793
   468    30.6511    48(7)                       44.9016           27.7484
   469    30.7011    49(7)                       47.6793           27.7175
   470    30.7511    51(7)                       51.3757           27.6867
   471    30.8011    56(7)                       57.2221           27.6560
   472    30.8511    69(8)                       66.4611           27.6253
   473    30.9011    83(9)                       79.5187           27.5947
   474    30.9511    97(10)                      95.6580           27.5641
   475    31.0011    114(11)                    113.4791           27.5336
   476    31.0511    134(12)                    131.8427           27.5032
   477    31.1011    152(12)                    150.8052           27.4729
   478    31.1511    164(13)                    172.4302           27.4427
   479    31.2011    181(13)                    201.1945           27.4126
   480    31.2511    225(15)                    242.3650           27.3827
   481    31.3011    270(16)                    298.3973           27.3528
   482    31.3511    338(18)                    365.7355           27.3231
   483    31.4011    402(20)                    433.5338           27.2934
   484    31.4511    463(22)                    485.0115           27.2639
   485    31.5011    510(23)                    502.4152           27.2345
   486    31.5511    491(22)                    475.3650           27.2053
   487    31.6011    422(21)                    407.3563           27.1763
   488    31.6511    321(18)                    315.4135           27.1473
   489    31.7011    230(15)                    222.1234           27.1186
   490    31.7511    136(12)                    145.1734           27.0900
   491    31.8011    82(9)                       91.7951           27.0615
   492    31.8511    55(7)                       59.9485           27.0332
   493    31.9011    36(6)                       43.2297           27.0052
   494    31.9511    37(6)                       35.2866           26.9773
   495    32.0010    34(6)                       31.7627           26.9496
   496    32.0510    30(5)                       30.2576           26.9221
   497    32.1010    30(5)                       29.6072           26.8948
   498    32.1511    30(5)                       29.3183           26.8678
   499    32.2010    33(6)                       29.1624           26.8409
   500    32.2510    32(6)                       29.0541           26.8142
   501    32.3010    29(5)                       28.9656           26.7878
   502    32.3510    35(6)                       28.8911           26.7617
   503    32.4011    32(6)                       28.8327           26.7358
   504    32.4510    28(5)                       28.7947           26.7101
   505    32.5010    30(5)                       28.7821           26.6846
   506    32.5510    28(5)                       28.8013           26.6594
   507    32.6010    31(6)                       28.8615           26.6344
   508    32.6511    27(5)                       28.9810           26.6097
   509    32.7010    27(5)                       29.2038           26.5853
   510    32.7510    30(5)                       29.6445           26.5612
   511    32.8010    34(6)                       30.5807           26.5373
   512    32.8510    34(6)                       32.6003           26.5137
   513    32.9011    36(6)                       36.7252           26.4904
   514    32.9510    43(7)                       44.4508           26.4673
   515    33.0010    53(7)                       57.5482           26.4447
   516    33.0510    68(8)                       77.7158           26.4223
   517    33.1010    97(10)                     106.0827           26.4002
   518    33.1511    137(12)                    142.4036           26.3785
   519    33.2010    183(14)                    184.0389           26.3570
   520    33.2510    229(15)                    225.8440           26.3358
   521    33.3010    270(16)                    262.1092           26.3150
   522    33.3510    299(17)                    289.3028           26.2945
   523    33.4011    321(18)                    306.6778           26.2743
   524    33.4510    322(18)                    315.5545           26.2545
   525    33.5010    319(18)                    319.6093           26.2350
   526    33.5510    313(18)                    324.1115           26.2159
   527    33.6010    319(18)                    332.6237           26.1971
   528    33.6511    333(18)                    342.8310           26.1787
   529    33.7010    341(18)                    344.7524           26.1607
   530    33.7510    323(18)                    325.6700           26.1430
   531    33.8010    276(17)                    280.5929           26.1257
   532    33.8510    210(14)                    217.7280           26.1088
   533    33.9011    156(12)                    153.1197           26.0921
   534    33.9510    104(10)                    100.6457           26.0759
   535    34.0010    67(8)                       65.7030           26.0601
   536    34.0510    45(7)                       46.0413           26.0447
   537    34.1010    39(6)                       36.4005           26.0297
   538    34.1511    35(6)                       32.2157           26.0150
   539    34.2010    36(6)                       30.8083           26.0008
   540    34.2510    36(6)                       31.1526           25.9870
   541    34.3010    37(6)                       33.4921           25.9736
   542    34.3510    45(7)                       39.1471           25.9605
   543    34.4011    51(7)                       50.1727           25.9479
   544    34.4510    63(8)                       68.4437           25.9357
   545    34.5010    80(9)                       94.3389           25.9238
   546    34.5510    111(11)                    125.8509           25.9125
   547    34.6010    136(12)                    158.6364           25.9016
   548    34.6511    164(13)                    186.4839           25.8910
   549    34.7010    188(14)                    201.8593           25.8810
   550    34.7510    186(14)                    198.2641           25.8713
   551    34.8010    181(13)                    174.8935           25.8621
   552    34.8510    151(12)                    138.6895           25.8532
   553    34.9011    112(11)                    100.6052           25.8448
   554    34.9510    78(9)                       69.5915           25.8370
   555    35.0010    53(7)                       49.0897           25.8295
   556    35.0510    37(6)                       37.7924           25.8225
   557    35.1010    36(6)                       32.7150           25.8159
   558    35.1511    36(6)                       31.4624           25.8099
   559    35.2010    36(6)                       32.8577           25.8042
   560    35.2510    40(6)                       36.5147           25.7990
   561    35.3010    48(7)                       42.1889           25.7942
   562    35.3510    55(7)                       49.3672           25.7899
   563    35.4011    65(8)                       57.2186           25.7861
   564    35.4510    80(9)                       64.6825           25.7826
   565    35.5010    83(9)                       70.5779           25.7797
   566    35.5510    80(9)                       73.9344           25.7772
   567    35.6010    78(9)                       74.7541           25.7754
   568    35.6511    77(9)                       74.1815           25.7739
   569    35.7010    77(9)                       73.5986           25.7729
   570    35.7510    81(9)                       73.3792           25.7723
   571    35.8010    74(9)                       72.3314           25.7722
   572    35.8510    70(8)                       68.5889           25.7725
   573    35.9011    65(8)                       61.4516           25.7733
   574    35.9510    56(7)                       52.1812           25.7746
   575    36.0010    44(7)                       43.1120           25.7764
   576    36.0510    40(6)                       36.0542           25.7788
   577    36.1010    34(6)                       31.5499           25.7816
   578    36.1511    31(6)                       29.1253           25.7848
   579    36.2010    33(6)                       28.0017           25.7884
   580    36.2510    28(5)                       27.5703           25.7926
   581    36.3010    28(5)                       27.5093           25.7972
   582    36.3510    32(6)                       27.6966           25.8023
   583    36.4011    31(6)                       28.1648           25.8079
   584    36.4510    33(6)                       29.0116           25.8140
   585    36.5010    31(6)                       30.3104           25.8206
   586    36.5510    36(6)                       32.0469           25.8276
   587    36.6010    39(6)                       34.0972           25.8352
   588    36.6511    36(6)                       36.2953           25.8431
   589    36.7010    42(6)                       38.6035           25.8516
   590    36.7510    42(6)                       41.5093           25.8604
   591    36.8010    51(7)                       46.7789           25.8699
   592    36.8510    66(8)                       58.1153           25.8798
   593    36.9011    91(10)                      80.7441           25.8902
   594    36.9510    120(11)                    119.1724           25.9010
   595    37.0010    166(13)                    174.1014           25.9123
   596    37.0510    219(15)                    240.4730           25.9241
   597    37.1010    283(17)                    307.7997           25.9363
   598    37.1511    334(18)                    361.4188           25.9492
   599    37.2010    343(19)                    384.5970           25.9623
   600    37.2510    315(18)                    365.6169           25.9760
   601    37.3010    267(16)                    307.8633           25.9901
   602    37.3510    200(14)                    230.4044           26.0047
   603    37.4011    146(12)                    156.8128           26.0198
   604    37.4510    97(10)                     102.8917           26.0353
   605    37.5010    68(8)                       72.4949           26.0513
   606    37.5510    62(8)                       61.9997           26.0677
   607    37.6010    62(8)                       66.4419           26.0846
   608    37.6511    76(9)                       82.1230           26.1019
   609    37.7010    97(10)                     105.9110           26.1197
   610    37.7510    124(11)                    133.8282           26.1379
   611    37.8010    157(13)                    160.3463           26.1566
   612    37.8510    175(13)                    178.3485           26.1758
   613    37.9011    176(13)                    180.6816           26.1953
   614    37.9510    168(13)                    164.4602           26.2154
   615    38.0010    143(12)                    134.3130           26.2358
   616    38.0510    108(10)                     99.9944           26.2566
   617    38.1010    76(9)                       70.6115           26.2781
   618    38.1511    54(7)                       50.4320           26.2999
   619    38.2010    42(6)                       38.8663           26.3220
   620    38.2510    35(6)                       33.1005           26.3446
   621    38.3010    34(6)                       30.4661           26.3677
   622    38.3510    31(6)                       29.3271           26.3912
   623    38.4011    32(6)                       28.9381           26.4151
   624    38.4510    32(6)                       29.0753           26.4394
   625    38.5010    33(6)                       29.7220           26.4642
   626    38.5510    31(6)                       30.8659           26.4892
   627    38.6010    34(6)                       32.3786           26.5147
   628    38.6511    34(6)                       34.0051           26.5407
   629    38.7010    35(6)                       35.4015           26.5669
   630    38.7510    37(6)                       36.1510           26.5937
   631    38.8010    36(6)                       35.9224           26.6208
   632    38.8510    34(6)                       34.7708           26.6483
   633    38.9011    33(6)                       33.2014           26.6761
   634    38.9510    34(6)                       32.0237           26.7044
   635    39.0010    33(6)                       32.1653           26.7330
   636    39.0510    37(6)                       34.7111           26.7621
   637    39.1010    43(7)                       40.9412           26.7915
   638    39.1511    51(7)                       51.9594           26.8212
   639    39.2010    63(8)                       67.8851           26.8513
   640    39.2510    75(9)                       87.2134           26.8818
   641    39.3010    97(10)                     106.7814           26.9125
   642    39.3510    108(10)                    122.0921           26.9438
   643    39.4011    112(11)                    128.1138           26.9753
   644    39.4510    108(10)                    121.7975           27.0071
   645    39.5010    95(10)                     105.1689           27.0393
   646    39.5510    74(9)                       84.9016           27.0719
   647    39.6010    63(8)                       68.3537           27.1048
   648    39.6511    61(8)                       59.7492           27.1379
   649    39.7010    59(8)                       59.1156           27.1715
   650    39.7510    65(8)                       63.6991           27.2053
   651    39.8010    81(9)                       69.8402           27.2395
   652    39.8510    86(9)                       74.1752           27.2739
   653    39.9011    85(9)                       74.3513           27.3086
   654    39.9510    81(9)                       69.5470           27.3436
   655    40.0010    72(8)                       60.8628           27.3790
   656    40.0510    58(8)                       50.8133           27.4146
   657    40.1010    45(7)                       41.9284           27.4505
   658    40.1511    38(6)                       35.5947           27.4867
   659    40.2010    35(6)                       31.8512           27.5231
   660    40.2510    34(6)                       29.9770           27.5598
   661    40.3010    32(6)                       29.1828           27.5969
   662    40.3510    32(6)                       28.9478           27.6342
   663    40.4011    32(6)                       29.0012           27.6717
   664    40.4510    33(6)                       29.2168           27.7094
   665    40.5010    29(5)                       29.5390           27.7474
   666    40.5510    33(6)                       29.9002           27.7856
   667    40.6010    34(6)                       30.2303           27.8241
   668    40.6511    33(6)                       30.4504           27.8628
   669    40.7010    32(6)                       30.4940           27.9018
   670    40.7510    30(5)                       30.3996           27.9409
   671    40.8010    31(6)                       30.2604           27.9802
   672    40.8510    33(6)                       30.2305           28.0198
   673    40.9011    29(5)                       30.5160           28.0596
   674    40.9510    31(6)                       31.5080           28.0995
   675    41.0010    32(6)                       34.0845           28.1397
   676    41.0510    42(6)                       39.9058           28.1800
   677    41.1010    51(7)                       51.3046           28.2207
   678    41.1511    66(8)                       70.4063           28.2614
   679    41.2010    85(9)                       97.7634           28.3023
   680    41.2510    123(11)                    131.3995           28.3434
   681    41.3010    158(13)                    166.5447           28.3846
   682    41.3510    194(14)                    195.7921           28.4260
   683    41.4011    213(15)                    210.8544           28.4676
   684    41.4510    220(15)                    207.5088           28.5093
   685    41.5010    215(15)                    189.1071           28.5511
   686    41.5510    183(14)                    163.6878           28.5931
   687    41.6010    151(12)                    138.8877           28.6352
   688    41.6511    127(11)                    118.9959           28.6775
   689    41.7010    102(10)                    104.5634           28.7198
   690    41.7510    90(9)                       93.5612           28.7623
   691    41.8010    78(9)                       83.5015           28.8047
   692    41.8510    66(8)                       73.8331           28.8475
   693    41.9011    62(8)                       66.3067           28.8902
   694    41.9510    57(8)                       63.0521           28.9331
   695    42.0010    59(8)                       64.4936           28.9761
   696    42.0510    69(8)                       68.8422           29.0191
   697    42.1010    73(9)                       72.9817           29.0623
   698    42.1511    84(9)                       73.9202           29.1054
   699    42.2010    82(9)                       70.7552           29.1487
   700    42.2510    75(9)                       66.0747           29.1920
   701    42.3010    72(8)                       65.0803           29.2354
   702    42.3510    76(9)                       72.9406           29.2789
   703    42.4011    97(10)                      92.0223           29.3223
   704    42.4510    125(11)                    120.5835           29.3658
   705    42.5010    168(13)                    153.2961           29.4094
   706    42.5510    219(15)                    182.3981           29.4530
   707    42.6010    233(15)                    199.0049           29.4967
   708    42.6511    237(15)                    196.8709           29.5404
   709    42.7010    213(15)                    177.7153           29.5840
   710    42.7510    173(13)                    150.5905           29.6277
   711    42.8010    136(12)                    124.9924           29.6714
   712    42.8510    102(10)                    104.8104           29.7151
   713    42.9011    85(9)                       88.3921           29.7587
   714    42.9510    73(9)                       73.2501           29.8024
   715    43.0010    57(8)                       59.2293           29.8460
   716    43.0510    50(7)                       47.8186           29.8896
   717    43.1010    43(7)                       40.0419           29.9333
   718    43.1511    36(6)                       35.6570           29.9770
   719    43.2010    33(6)                       33.6666           30.0205
   720    43.2510    32(6)                       33.2110           30.0641
   721    43.3010    33(6)                       34.0592           30.1076
   722    43.3510    34(6)                       36.7310           30.1510
   723    43.4011    39(6)                       42.3330           30.1944
   724    43.4510    46(7)                       52.1092           30.2378
   725    43.5010    62(8)                       66.6715           30.2810
   726    43.5510    80(9)                       85.3848           30.3243
   727    43.6010    107(10)                    105.8638           30.3674
   728    43.6511    136(12)                    123.8495           30.4105
   729    43.7010    147(12)                    134.3137           30.4535
   730    43.7510    142(12)                    134.1463           30.4964
   731    43.8010    122(11)                    123.6698           30.5391
   732    43.8510    102(10)                    105.9834           30.5819
   733    43.9011    83(9)                       85.6711           30.6245
   734    43.9510    68(8)                       66.9866           30.6671
   735    44.0010    54(7)                       52.5608           30.7095
   736    44.0510    43(7)                       43.0097           30.7519
   737    44.1010    35(6)                       37.5262           30.7941
   738    44.1511    33(6)                       34.7912           30.8362
   739    44.2010    32(6)                       33.6533           30.8782
   740    44.2510    30(5)                       33.4585           30.9201
   741    44.3010    32(6)                       34.0629           30.9618
   742    44.3510    34(6)                       35.9038           31.0034
   743    44.4011    37(6)                       40.0316           31.0449
   744    44.4510    46(7)                       47.8443           31.0863
   745    44.5010    61(8)                       60.3826           31.1275
   746    44.5510    78(9)                       77.5082           31.1686
   747    44.6010    95(10)                      97.5799           31.2095
   748    44.6511    121(11)                    117.7773           31.2503
   749    44.7010    143(12)                    134.8238           31.2908
   750    44.7510    150(12)                    146.6902           31.3313
   751    44.8010    155(12)                    154.3578           31.3715
   752    44.8510    149(12)                    160.7496           31.4116
   753    44.9011    151(12)                    167.2291           31.4516
   754    44.9510    155(12)                    171.0028           31.4914
   755    45.0010    154(12)                    165.7994           31.5310
   756    45.0510    143(12)                    147.3648           31.5703
   757    45.1010    123(11)                    118.8481           31.6095
   758    45.1511    97(10)                      89.0610           31.6486
   759    45.2010    72(8)                       66.4184           31.6876
   760    45.2510    55(7)                       54.9877           31.7262
   761    45.3010    52(7)                       54.8924           31.7647
   762    45.3510    61(8)                       64.3986           31.8030
   763    45.4011    77(9)                       80.7945           31.8412
   764    45.4510    93(10)                     100.1736           31.8791
   765    45.5010    116(11)                    117.2848           31.9168
   766    45.5510    126(11)                    126.0485           31.9544
   767    45.6010    117(11)                    122.1302           31.9916
   768    45.6511    99(10)                     106.9941           32.0287
   769    45.7010    86(9)                       87.8781           32.0656
   770    45.7510    71(8)                       72.8354           32.1022
   771    45.8010    64(8)                       65.9184           32.1387
   772    45.8510    62(8)                       66.1503           32.1750
   773    45.9011    70(8)                       69.6360           32.2110
   774    45.9510    73(9)                       71.9473           32.2468
   775    46.0010    75(9)                       69.9004           32.2824
   776    46.0510    72(8)                       63.1342           32.3177
   777    46.1010    68(8)                       54.0187           32.3529
   778    46.1511    57(8)                       45.6141           32.3879
   779    46.2010    43(7)                       39.7238           32.4225
   780    46.2510    35(6)                       36.4598           32.4570
   781    46.3010    32(6)                       35.0763           32.4913
   782    46.3510    33(6)                       34.8549           32.5253
   783    46.4011    34(6)                       35.4146           32.5590
   784    46.4510    34(6)                       36.6209           32.5925
   785    46.5010    34(6)                       38.4331           32.6259
   786    46.5510    37(6)                       40.7908           32.6589
   787    46.6010    40(6)                       43.5498           32.6918
   788    46.6511    43(7)                       46.4693           32.7243
   789    46.7010    46(7)                       49.2856           32.7565
   790    46.7510    47(7)                       51.6951           32.7886
   791    46.8010    52(7)                       53.2901           32.8205
   792    46.8510    48(7)                       53.6025           32.8521
   793    46.9011    50(7)                       52.2999           32.8835
   794    46.9510    49(7)                       49.6205           32.9147
   795    47.0010    46(7)                       46.7580           32.9457
   796    47.0510    44(7)                       45.4335           32.9763
   797    47.1010    44(7)                       46.9353           33.0068
   798    47.1511    51(7)                       51.5157           33.0369
   799    47.2010    56(7)                       58.3608           33.0669
   800    47.2510    65(8)                       66.2225           33.0966
   801    47.3010    75(9)                       74.2284           33.1261
   802    47.3510    83(9)                       82.8228           33.1553
   803    47.4011    88(9)                       94.5824           33.1842
   804    47.4510    112(11)                    113.1294           33.2130
   805    47.5010    137(12)                    139.8885           33.2414
   806    47.5510    170(13)                    171.2107           33.2697
   807    47.6010    205(14)                    198.2086           33.2977
   808    47.6511    215(15)                    210.3169           33.3255
   809    47.7010    206(14)                    201.1834           33.3530
   810    47.7510    176(13)                    172.6164           33.3803
   811    47.8010    141(12)                    133.8945           33.4074
   812    47.8510    96(10)                      96.5707           33.4341
   813    47.9011    63(8)                       68.3848           33.4608
   814    47.9510    50(7)                       51.0582           33.4872
   815    48.0010    39(6)                       42.1670           33.5133
   816    48.0510    35(6)                       38.2645           33.5391
   817    48.1010    36(6)                       36.7761           33.5647
   818    48.1511    34(6)                       36.3026           33.5901
   819    48.2010    33(6)                       36.2285           33.6154
   820    48.2510    32(6)                       36.3259           33.6403
   821    48.3010    34(6)                       36.5405           33.6650
   822    48.3510    34(6)                       36.8934           33.6895
   823    48.4011    34(6)                       37.4396           33.7137
   824    48.4510    34(6)                       38.2986           33.7378
   825    48.5010    39(6)                       39.8253           33.7617
   826    48.5510    40(6)                       43.1159           33.7853
   827    48.6010    49(7)                       50.8520           33.8087
   828    48.6511    71(8)                       67.8940           33.8319
   829    48.7010    116(11)                    100.1094           33.8548
   830    48.7510    177(13)                    150.6531           33.8776
   831    48.8010    248(16)                    215.8648           33.9001
   832    48.8510    326(18)                    284.0165           33.9223
   833    48.9011    362(19)                    337.2704           33.9445
   834    48.9510    359(19)                    358.0321           33.9665
   835    49.0010    334(18)                    343.1419           33.9882
   836    49.0510    291(17)                    311.4340           34.0097
   837    49.1010    283(17)                    289.0368           34.0310
   838    49.1511    299(17)                    288.0998           34.0521
   839    49.2010    315(18)                    299.0293           34.0731
   840    49.2510    338(18)                    300.5139           34.0939
   841    49.3010    307(18)                    276.1142           34.1145
   842    49.3510    264(16)                    225.8858           34.1348
   843    49.4011    201(14)                    165.3918           34.1550
   844    49.4510    134(12)                    112.8825           34.1749
   845    49.5010    80(9)                       78.4627           34.1947
   846    49.5510    62(8)                       63.3895           34.2143
   847    49.6010    62(8)                       66.9419           34.2338
   848    49.6511    90(9)                       92.7689           34.2530
   849    49.7010    168(13)                    148.7777           34.2722
   850    49.7510    306(17)                    239.9625           34.2912
   851    49.8010    461(21)                    359.5068           34.3100
   852    49.8510    591(24)                    484.6371           34.3286
   853    49.9011    672(26)                    578.5519           34.3471
   854    49.9510    634(25)                    601.3643           34.3654
   855    50.0010    515(23)                    537.4199           34.3835
   856    50.0510    385(20)                    414.1646           34.4016
   857    50.1010    253(16)                    281.3246           34.4195
   858    50.1511    154(12)                    176.5941           34.4372
   859    50.2010    98(10)                     111.2312           34.4548
   860    50.2510    69(8)                       78.9132           34.4723
   861    50.3010    71(8)                       69.5678           34.4896
   862    50.3510    78(9)                       75.2600           34.5068
   863    50.4011    94(10)                      89.9072           34.5238
   864    50.4510    120(11)                    108.2908           34.5407
   865    50.5010    136(12)                    126.0786           34.5575
   866    50.5510    146(12)                    140.9739           34.5743
   867    50.6010    162(13)                    154.8790           34.5909
   868    50.6511    179(13)                    172.6425           34.6073
   869    50.7010    215(15)                    195.9200           34.6237
   870    50.7510    225(15)                    218.2356           34.6400
   871    50.8010    225(15)                    226.0386           34.6561
   872    50.8510    208(14)                    208.4821           34.6722
   873    50.9011    160(13)                    168.8416           34.6882
   874    50.9510    109(10)                    122.3631           34.7041
   875    51.0010    80(9)                       83.9784           34.7199
   876    51.0510    55(7)                       59.7657           34.7356
   877    51.1010    42(6)                       47.8758           34.7512
   878    51.1511    40(6)                       44.1440           34.7668
   879    51.2010    43(7)                       45.7925           34.7822
   880    51.2510    50(7)                       51.7861           34.7976
   881    51.3010    60(8)                       61.6579           34.8130
   882    51.3510    80(9)                       74.7245           34.8282
   883    51.4011    93(10)                      90.1227           34.8434
   884    51.4510    105(10)                    107.0449           34.8586
   885    51.5010    129(11)                    125.1481           34.8736
   886    51.5510    145(12)                    144.8015           34.8888
   887    51.6010    168(13)                    164.9784           34.9038
   888    51.6511    178(13)                    180.4560           34.9187
   889    51.7010    174(13)                    182.2974           34.9337
   890    51.7510    153(12)                    164.9380           34.9485
   891    51.8010    123(11)                    133.4149           34.9634
   892    51.8510    90(9)                       99.9950           34.9783
   893    51.9011    68(8)                       74.7755           34.9930
   894    51.9510    55(7)                       60.3943           35.0079
   895    52.0010    49(7)                       53.8073           35.0227
   896    52.0510    51(7)                       50.8868           35.0374
   897    52.1010    48(7)                       49.6288           35.0522
   898    52.1511    50(7)                       51.0225           35.0668
   899    52.2010    55(7)                       58.2389           35.0815
   900    52.2510    71(8)                       74.8865           35.0963
   901    52.3010    106(10)                    102.7072           35.1110
   902    52.3510    144(12)                    140.0694           35.1258
   903    52.4011    182(13)                    182.4302           35.1404
   904    52.4510    215(15)                    223.8265           35.1553
   905    52.5010    244(16)                    259.2537           35.1700
   906    52.5510    264(16)                    288.8383           35.1848
   907    52.6010    276(17)                    315.9995           35.1997
   908    52.6511    292(17)                    337.7285           35.2146
   909    52.7010    295(17)                    339.5163           35.2295
   910    52.7510    273(17)                    307.2640           35.2444
   911    52.8010    232(15)                    246.6663           35.2593
   912    52.8510    186(14)                    179.9619           35.2743
   913    52.9011    130(11)                    126.4498           35.2894
   914    52.9510    93(10)                      91.3083           35.3045
   915    53.0010    71(8)                       70.0717           35.3196
   916    53.0510    62(8)                       57.6133           35.3347
   917    53.1010    54(7)                       51.4405           35.3499
   918    53.1511    51(7)                       50.5110           35.3652
   919    53.2010    54(7)                       53.8497           35.3805
   920    53.2510    62(8)                       60.0182           35.3959
   921    53.3010    70(8)                       67.1144           35.4113
   922    53.3510    81(9)                       73.1539           35.4269
   923    53.4011    85(9)                       76.7717           35.4425
   924    53.4510    77(9)                       77.3651           35.4582
   925    53.5010    76(9)                       75.5067           35.4739
   926    53.5510    71(8)                       72.8452           35.4898
   927    53.6010    73(9)                       70.6455           35.5057
   928    53.6511    73(9)                       68.6658           35.5218
   929    53.7010    73(9)                       65.9535           35.5379
   930    53.7510    64(8)                       62.8307           35.5540
   931    53.8010    61(8)                       60.8560           35.5703
   932    53.8510    63(8)                       61.0216           35.5866
   933    53.9011    65(8)                       62.6149           35.6032
   934    53.9510    70(8)                       63.8121           35.6197
   935    54.0010    70(8)                       63.5337           35.6363
   936    54.0510    66(8)                       62.3046           35.6531
   937    54.1010    63(8)                       60.9694           35.6700
   938    54.1511    61(8)                       59.2643           35.6871
   939    54.2010    62(8)                       56.2041           35.7041
   940    54.2510    54(7)                       51.8358           35.7214
   941    54.3010    48(7)                       47.5233           35.7389
   942    54.3510    44(7)                       44.5886           35.7563
   943    54.4011    43(7)                       43.2690           35.7739
   944    54.4510    45(7)                       42.8430           35.7915
   945    54.5010    43(7)                       42.4217           35.8093
   946    54.5510    40(6)                       41.6179           35.8273
   947    54.6010    37(6)                       40.6523           35.8454
   948    54.6511    38(6)                       39.9800           35.8636
   949    54.7010    38(6)                       40.0400           35.8821
   950    54.7510    38(6)                       41.5214           35.9005
   951    54.8010    41(6)                       46.0924           35.9191
   952    54.8510    50(7)                       56.8585           35.9378
   953    54.9011    72(8)                       77.4303           35.9568
   954    54.9510    103(10)                    109.0763           35.9758
   955    55.0010    147(12)                    148.1776           35.9949
   956    55.0510    191(14)                    185.8487           36.0142
   957    55.1010    216(15)                    210.0936           36.0337
   958    55.1511    225(15)                    212.7353           36.0533
   959    55.2010    209(14)                    198.5123           36.0731
   960    55.2510    188(14)                    181.6788           36.0930
   961    55.3010    172(13)                    173.6387           36.1131
   962    55.3510    165(13)                    178.1819           36.1332
   963    55.4011    186(14)                    198.6162           36.1536
   964    55.4510    223(15)                    242.2727           36.1740
   965    55.5010    296(17)                    312.2620           36.1947
   966    55.5510    411(20)                    396.4860           36.2155
   967    55.6010    509(23)                    464.2397           36.2365
   968    55.6511    526(23)                    476.2044           36.2576
   969    55.7010    471(22)                    414.3478           36.2788
   970    55.7510    337(18)                    304.4788           36.3002
   971    55.8010    201(14)                    193.7961           36.3218
   972    55.8510    117(11)                    114.5231           36.3435
   973    55.9011    70(8)                       70.8906           36.3655
   974    55.9510    49(7)                       51.3615           36.3875
   975    56.0010    44(7)                       43.8731           36.4097
   976    56.0510    41(6)                       41.2715           36.4321
   977    56.1010    38(6)                       40.3842           36.4545
   978    56.1511    39(6)                       40.0636           36.4771
   979    56.2010    40(6)                       39.9606           36.4999
   980    56.2510    38(6)                       40.0257           36.5230
   981    56.3010    37(6)                       40.2808           36.5461
   982    56.3510    39(6)                       40.7981           36.5694
   983    56.4011    37(6)                       41.8186           36.5928
   984    56.4510    43(7)                       43.9922           36.6164
   985    56.5010    49(7)                       48.7114           36.6401
   986    56.5510    59(8)                       58.1874           36.6640
   987    56.6010    73(9)                       75.1013           36.6881
   988    56.6511    97(10)                     101.3777           36.7124
   989    56.7010    134(12)                    135.7821           36.7367
   990    56.7510    181(13)                    171.9580           36.7611
   991    56.8010    224(15)                    200.0623           36.7859
   992    56.8510    238(15)                    210.2899           36.8108
   993    56.9011    222(15)                    196.6992           36.8358
   994    56.9510    186(14)                    164.8062           36.8609
   995    57.0010    141(12)                    130.9895           36.8862
   996    57.0510    101(10)                    110.2148           36.9115
   997    57.1010    94(10)                     106.3194           36.9371
   998    57.1511    97(10)                     112.3419           36.9627
   999    57.2010    105(10)                    117.1914           36.9885
  1000    57.2510    100(10)                    113.0940           37.0146
  1001    57.3010    85(9)                      100.4418           37.0407
  1002    57.3510    76(9)                       85.2444           37.0669
  1003    57.4011    69(8)                       73.5163           37.0933
  1004    57.4510    62(8)                       68.3872           37.1198
  1005    57.5010    68(8)                       70.1417           37.1464
  1006    57.5510    75(9)                       77.4547           37.1732
  1007    57.6010    81(9)                       88.7144           37.2001
  1008    57.6511    97(10)                     103.4899           37.2272
  1009    57.7010    119(11)                    124.0108           37.2543
  1010    57.7510    148(12)                    154.1671           37.2816
  1011    57.8010    198(14)                    196.2395           37.3090
  1012    57.8510    249(16)                    248.3868           37.3365
  1013    57.9011    297(17)                    304.7300           37.3641
  1014    57.9510    346(19)                    354.2425           37.3918
  1015    58.0010    355(19)                    380.8716           37.4197
  1016    58.0510    344(19)                    369.1935           37.4476
  1017    58.1010    292(17)                    314.4503           37.4758
  1018    58.1511    219(15)                    233.9234           37.5041
  1019    58.2010    150(12)                    158.0545           37.5324
  1020    58.2510    102(10)                    110.6341           37.5607
  1021    58.3010    98(10)                     100.7005           37.5891
  1022    58.3510    123(11)                    126.7075           37.6178
  1023    58.4011    188(14)                    180.4745           37.6464
  1024    58.4510    279(17)                    246.2579           37.6751
  1025    58.5010    346(19)                    300.1483           37.7039
  1026    58.5510    364(19)                    316.2021           37.7328
  1027    58.6010    335(18)                    285.4595           37.7620
  1028    58.6511    258(16)                    228.6284           37.7911
  1029    58.7010    190(14)                    177.0204           37.8203
  1030    58.7510    147(12)                    146.9345           37.8494
  1031    58.8010    124(11)                    133.5491           37.8787
  1032    58.8510    113(11)                    123.4850           37.9081
  1033    58.9011    104(10)                    109.8454           37.9375
  1034    58.9510    89(9)                       95.5686           37.9670
  1035    59.0010    78(9)                       85.9776           37.9965
  1036    59.0510    74(9)                       81.9442           38.0262
  1037    59.1010    73(9)                       79.7883           38.0558
  1038    59.1511    73(9)                       75.6738           38.0855
  1039    59.2010    67(8)                       68.6398           38.1152
  1040    59.2510    60(8)                       60.3928           38.1450
  1041    59.3010    54(7)                       53.5055           38.1748
  1042    59.3510    45(7)                       49.7628           38.2046
  1043    59.4011    48(7)                       49.8257           38.2345
  1044    59.4510    51(7)                       53.6417           38.2644
  1045    59.5010    59(8)                       60.6283           38.2944
  1046    59.5510    67(8)                       69.2725           38.3242
  1047    59.6010    71(8)                       76.6803           38.3541
  1048    59.6511    69(8)                       79.0611           38.3841
  1049    59.7010    67(8)                       74.3456           38.4140
  1050    59.7510    58(8)                       64.8514           38.4439
  1051    59.8010    50(7)                       55.2768           38.4739
  1052    59.8510    44(7)                       48.8168           38.5038
  1053    59.9011    45(7)                       45.7597           38.5338
  1054    59.9510    45(7)                       44.7826           38.5637
  1055    60.0010    42(6)                       44.6911           38.5936
  1056    60.0510    43(7)                       45.1564           38.6234
  1057    60.1010    44(7)                       46.5410           38.6533
  1058    60.1511    49(7)                       49.3602           38.6831
  1059    60.2010    54(7)                       53.7570           38.7129
  1060    60.2510    61(8)                       59.2172           38.7427
  1061    60.3010    65(8)                       64.3971           38.7724
  1062    60.3510    69(8)                       67.2108           38.8020
  1063    60.4011    69(8)                       66.0298           38.8316
  1064    60.4510    63(8)                       61.6706           38.8611
  1065    60.5010    56(7)                       56.7245           38.8907
  1066    60.5510    54(7)                       53.0362           38.9201
  1067    60.6010    50(7)                       50.5728           38.9494
  1068    60.6511    46(7)                       48.5818           38.9787
  1069    60.7010    46(7)                       47.0859           39.0079
  1070    60.7510    45(7)                       47.1374           39.0371
  1071    60.8010    46(7)                       51.1724           39.0662
  1072    60.8510    54(7)                       64.1401           39.0951
  1073    60.9011    79(9)                       93.4815           39.1239
  1074    60.9510    125(11)                    144.8163           39.1527
  1075    61.0010    191(14)                    214.8819           39.1814
  1076    61.0510    257(16)                    287.7311           39.2100
  1077    61.1010    303(17)                    337.6871           39.2383
  1078    61.1511    318(18)                    343.1277           39.2666
  1079    61.2010    304(17)                    309.2333           39.2949
  1080    61.2510    266(16)                    264.0628           39.3230
  1081    61.3010    232(15)                    228.7296           39.3510
  1082    61.3510    211(15)                    201.8862           39.3788
  1083    61.4011    185(14)                    174.5775           39.4064
  1084    61.4510    161(13)                    149.4725           39.4340
  1085    61.5010    150(12)                    138.6644           39.4614
  1086    61.5510    163(13)                    150.4466           39.4886
  1087    61.6010    196(14)                    180.1728           39.5158
  1088    61.6511    225(15)                    210.8441           39.5427
  1089    61.7010    236(15)                    220.3657           39.5694
  1090    61.7510    210(14)                    196.7764           39.5960
  1091    61.8010    155(12)                    150.7541           39.6225
  1092    61.8510    108(10)                    104.4604           39.6487
  1093    61.9011    72(8)                       72.8543           39.6747
  1094    61.9510    55(7)                       58.1848           39.7007
  1095    62.0010    56(7)                       57.1243           39.7264
  1096    62.0510    65(8)                       67.7165           39.7518
  1097    62.1010    82(9)                       89.3040           39.7771
  1098    62.1511    114(11)                    118.5894           39.8022
  1099    62.2010    135(12)                    147.0723           39.8271
  1100    62.2510    150(12)                    162.2140           39.8519
  1101    62.3010    147(12)                    154.9524           39.8763
  1102    62.3510    129(11)                    131.0779           39.9006
  1103    62.4011    108(10)                    109.2103           39.9246
  1104    62.4510    100(10)                    107.1595           39.9484
  1105    62.5010    116(11)                    131.3448           39.9720
  1106    62.5510    155(12)                    174.5548           39.9953
  1107    62.6010    205(14)                    219.2087           40.0185
  1108    62.6511    234(15)                    243.2065           40.0413
  1109    62.7010    238(15)                    233.5479           40.0639
  1110    62.7510    212(15)                    202.6639           40.0863
  1111    62.8010    189(14)                    179.6361           40.1083
  1112    62.8510    187(14)                    185.2422           40.1302
  1113    62.9011    225(15)                    219.3420           40.1518
  1114    62.9510    284(17)                    268.3705           40.1732
  1115    63.0010    343(19)                    318.3090           40.1941
  1116    63.0510    396(20)                    362.7932           40.2149
  1117    63.1010    455(21)                    405.1257           40.2354
  1118    63.1511    499(22)                    445.0018           40.2557
  1119    63.2010    521(23)                    462.5760           40.2755
  1120    63.2510    488(22)                    429.0663           40.2954
  1121    63.3010    406(20)                    347.7018           40.3145
  1122    63.3510    315(18)                    260.6312           40.3336
  1123    63.4011    255(16)                    207.5094           40.3524
  1124    63.4510    253(16)                    194.5062           40.3709
  1125    63.5010    277(17)                    199.8069           40.3890
  1126    63.5510    281(17)                    197.6120           40.4068
  1127    63.6010    250(16)                    178.3657           40.4244
  1128    63.6511    197(14)                    154.1798           40.4415
  1129    63.7010    156(12)                    143.5759           40.4585
  1130    63.7510    148(12)                    153.4178           40.4749
  1131    63.8010    159(13)                    173.9727           40.4912
  1132    63.8510    170(13)                    186.9027           40.5072
  1133    63.9011    164(13)                    179.1994           40.5228
  1134    63.9510    139(12)                    151.9776           40.5381
  1135    64.0011    111(11)                    117.9452           40.5530
  1136    64.0511    88(9)                       90.4111           40.5675
  1137    64.1011    72(8)                       74.4773           40.5818
  1138    64.1511    66(8)                       67.5380           40.5956
  1139    64.2010    63(8)                       65.3454           40.6092
  1140    64.2511    65(8)                       66.8340           40.6224
  1141    64.3011    74(9)                       73.5080           40.6353
  1142    64.3511    86(9)                       86.1464           40.6477
  1143    64.4011    105(10)                    103.0497           40.6598
  1144    64.4510    129(11)                    120.3432           40.6717
  1145    64.5011    137(12)                    133.0397           40.6830
  1146    64.5511    145(12)                    138.2167           40.6940
  1147    64.6011    136(12)                    135.6372           40.7047
  1148    64.6511    121(11)                    124.9796           40.7150
  1149    64.7010    103(10)                    108.1839           40.7250
  1150    64.7511    85(9)                       92.4011           40.7345
  1151    64.8011    80(9)                       85.3582           40.7437
  1152    64.8511    86(9)                       88.8120           40.7524
  1153    64.9011    96(10)                      97.3501           40.7609
  1154    64.9510    105(10)                    102.2838           40.7689
  1155    65.0011    98(10)                      97.6770           40.7765
  1156    65.0511    90(9)                       85.6370           40.7838
  1157    65.1011    78(9)                       74.1844           40.7907
  1158    65.1511    71(8)                       70.8477           40.7972
  1159    65.2010    76(9)                       79.4897           40.8033
  1160    65.2511    96(10)                     100.2315           40.8091
  1161    65.3011    126(11)                    129.0330           40.8143
  1162    65.3511    154(12)                    156.4331           40.8192
  1163    65.4011    166(13)                    168.7567           40.8238
  1164    65.4510    153(12)                    157.1513           40.8278
  1165    65.5011    130(11)                    129.0077           40.8315
  1166    65.5511    102(10)                    101.4190           40.8349
  1167    65.6011    84(9)                       85.4382           40.8379
  1168    65.6511    76(9)                       80.1336           40.8404
  1169    65.7010    71(8)                       78.1130           40.8426
  1170    65.7511    66(8)                       73.9835           40.8443
  1171    65.8011    64(8)                       68.4465           40.8456
  1172    65.8511    63(8)                       65.1311           40.8466
  1173    65.9011    65(8)                       65.7640           40.8471
  1174    65.9510    66(8)                       68.8345           40.8472
  1175    66.0011    71(8)                       71.4035           40.8470
  1176    66.0511    66(8)                       71.2030           40.8463
  1177    66.1011    60(8)                       68.6580           40.8452
  1178    66.1511    64(8)                       66.6286           40.8436
  1179    66.2010    71(8)                       67.0553           40.8418
  1180    66.2511    72(8)                       68.7164           40.8395
  1181    66.3011    73(9)                       68.2430           40.8369
  1182    66.3511    71(8)                       63.6788           40.8337
  1183    66.4011    60(8)                       56.7168           40.8301
  1184    66.4510    52(7)                       50.5022           40.8262
  1185    66.5011    44(7)                       46.9534           40.8219
  1186    66.5511    43(7)                       46.5260           40.8172
  1187    66.6011    49(7)                       49.5319           40.8121
  1188    66.6511    54(7)                       56.6756           40.8065
  1189    66.7010    70(8)                       67.9236           40.8006
  1190    66.7511    90(9)                       81.4120           40.7942
  1191    66.8011    108(10)                     93.9558           40.7874
  1192    66.8511    115(11)                    103.8816           40.7803
  1193    66.9011    127(11)                    115.2879           40.7728
  1194    66.9510    149(12)                    135.7648           40.7649
  1195    67.0011    187(14)                    166.4971           40.7566
  1196    67.0511    220(15)                    196.7337           40.7477
  1197    67.1011    235(15)                    209.4449           40.7387
  1198    67.1511    222(15)                    198.0058           40.7292
  1199    67.2010    194(14)                    176.1483           40.7192
  1200    67.2511    177(13)                    162.5596           40.7090
  1201    67.3011    165(13)                    161.3085           40.6983
  1202    67.3511    165(13)                    160.0735           40.6871
  1203    67.4011    148(12)                    146.5450           40.6757
  1204    67.4510    129(11)                    125.8206           40.6638
  1205    67.5011    117(11)                    115.6472           40.6517
  1206    67.5511    118(11)                    129.6855           40.6390
  1207    67.6011    148(12)                    168.0037           40.6260
  1208    67.6511    197(14)                    218.0489           40.6127
  1209    67.7010    248(16)                    259.7276           40.5989
  1210    67.7511    280(17)                    276.6056           40.5848
  1211    67.8011    273(17)                    266.1071           40.5703
  1212    67.8511    244(16)                    233.1831           40.5555
  1213    67.9011    189(14)                    185.9170           40.5403
  1214    67.9510    130(11)                    135.7579           40.5247
  1215    68.0011    91(10)                      94.4441           40.5087
  1216    68.0511    64(8)                       68.0540           40.4924
  1217    68.1011    54(7)                       55.8299           40.4758
  1218    68.1511    54(7)                       54.5926           40.4587
  1219    68.2010    63(8)                       62.4538           40.4414
  1220    68.2511    76(9)                       78.3678           40.4238
  1221    68.3011    106(10)                     99.5597           40.4056
  1222    68.3511    128(11)                    120.3030           40.3873
  1223    68.4011    138(12)                    133.4549           40.3685
  1224    68.4510    144(12)                    136.1837           40.3495
  1225    68.5011    136(12)                    132.6559           40.3300
  1226    68.5511    123(11)                    126.8941           40.3104
  1227    68.6011    108(10)                    117.4372           40.2903
  1228    68.6511    97(10)                     102.2435           40.2699
  1229    68.7010    81(9)                       84.0874           40.2493
  1230    68.7511    68(8)                       68.1073           40.2282
  1231    68.8011    57(8)                       57.2399           40.2069
  1232    68.8511    50(7)                       51.2651           40.1852
  1233    68.9011    51(7)                       49.3360           40.1633
  1234    68.9510    53(7)                       52.0596           40.1410
  1235    69.0011    60(8)                       61.2606           40.1184
  1236    69.0511    77(9)                       77.7233           40.0956
  1237    69.1011    95(10)                      98.6139           40.0724
  1238    69.1511    110(10)                    116.7365           40.0490
  1239    69.2010    108(10)                    122.9401           40.0253
  1240    69.2511    104(10)                    113.7000           40.0013
  1241    69.3011    95(10)                      95.6147           39.9770
  1242    69.3511    82(9)                       77.7928           39.9525
  1243    69.4011    70(8)                       64.5136           39.9277
  1244    69.4510    60(8)                       56.1375           39.9026
  1245    69.5011    53(7)                       52.5835           39.8773
  1246    69.5511    53(7)                       54.3301           39.8517
  1247    69.6011    58(8)                       61.8725           39.8258
  1248    69.6511    71(8)                       75.1020           39.7997
  1249    69.7010    84(9)                       92.1416           39.7735
  1250    69.7511    100(10)                    108.7014           39.7469
  1251    69.8011    105(10)                    119.2102           39.7201
  1252    69.8511    109(10)                    118.6015           39.6930
  1253    69.9011    106(10)                    107.8388           39.6658
  1254    69.9510    99(10)                      96.8240           39.6384
  1255    70.0011    98(10)                      97.1008           39.6106
  1256    70.0511    119(11)                    113.2595           39.5827
  1257    70.1011    144(12)                    140.1116           39.5546
  1258    70.1511    163(13)                    165.2110           39.5263
  1259    70.2010    169(13)                    174.5828           39.4977
  1260    70.2511    155(12)                    163.5994           39.4690
  1261    70.3011    142(12)                    142.4764           39.4401
  1262    70.3511    125(11)                    124.6712           39.4111
  1263    70.4011    117(11)                    114.0738           39.3819
  1264    70.4510    113(11)                    105.9744           39.3524
  1265    70.5011    94(10)                      94.7887           39.3228
  1266    70.5511    83(9)                       79.6703           39.2930
  1267    70.6011    72(8)                       64.6610           39.2631
  1268    70.6511    56(7)                       54.1056           39.2332
  1269    70.7010    51(7)                       50.0576           39.2029
  1270    70.7511    56(7)                       53.5062           39.1724
  1271    70.8011    69(8)                       66.1679           39.1418
  1272    70.8511    99(10)                      89.0429           39.1113
  1273    70.9011    135(12)                    118.6475           39.0806
  1274    70.9510    164(13)                    145.1206           39.0498
  1275    71.0011    171(13)                    155.3293           39.0187
  1276    71.0511    153(12)                    143.7533           38.9875
  1277    71.1011    129(11)                    120.9187           38.9563
  1278    71.1511    106(10)                    102.5322           38.9250
  1279    71.2010    96(10)                      95.6181           38.8935
  1280    71.2511    94(10)                      97.2094           38.8620
  1281    71.3011    104(10)                    102.9564           38.8305
  1282    71.3511    119(11)                    113.3118           38.7987
  1283    71.4011    138(12)                    129.1145           38.7669
  1284    71.4510    155(12)                    145.6130           38.7351
  1285    71.5011    161(13)                    154.7776           38.7031
  1286    71.5511    161(13)                    155.3129           38.6712
  1287    71.6011    155(12)                    155.8775           38.6392
  1288    71.6511    146(12)                    162.5232           38.6071
  1289    71.7010    145(12)                    168.2927           38.5750
  1290    71.7511    133(12)                    159.2171           38.5429
  1291    71.8011    117(11)                    132.1207           38.5107
  1292    71.8511    89(9)                       98.5915           38.4784
  1293    71.9011    69(8)                       72.1655           38.4462
  1294    71.9510    58(8)                       59.2461           38.4138
  1295    72.0011    57(8)                       61.4158           38.3815
  1296    72.0511    75(9)                       81.1057           38.3493
  1297    72.1011    115(11)                    120.6171           38.3170
  1298    72.1511    182(13)                    175.0934           38.2846
  1299    72.2010    243(16)                    227.3840           38.2523
  1300    72.2511    273(17)                    251.5832           38.2201
  1301    72.3011    255(16)                    231.5328           38.1878
  1302    72.3511    201(14)                    181.9470           38.1555
  1303    72.4011    142(12)                    134.2414           38.1234
  1304    72.4510    110(10)                    108.6405           38.0912
  1305    72.5011    104(10)                    106.0487           38.0590
  1306    72.5511    114(11)                    118.1697           38.0269
  1307    72.6011    136(12)                    137.9248           37.9949
  1308    72.6511    157(13)                    159.5595           37.9629
  1309    72.7010    161(13)                    172.9409           37.9310
  1310    72.7511    158(13)                    165.9359           37.8991
  1311    72.8011    133(12)                    138.6755           37.8673
  1312    72.8511    102(10)                    105.7370           37.8356
  1313    72.9011    79(9)                       81.0883           37.8040
  1314    72.9510    66(8)                       68.8656           37.7724
  1315    73.0011    66(8)                       65.9420           37.7409
  1316    73.0511    70(8)                       67.6622           37.7095
  1317    73.1011    72(8)                       70.8536           37.6782
  1318    73.1511    79(9)                       74.3692           37.6471
  1319    73.2010    79(9)                       77.7059           37.6160
  1320    73.2511    80(9)                       79.8071           37.5851
  1321    73.3011    77(9)                       79.9231           37.5542
  1322    73.3511    73(9)                       78.8380           37.5235
  1323    73.4011    70(8)                       77.0040           37.4930
  1324    73.4510    66(8)                       72.8370           37.4625
  1325    73.5011    62(8)                       65.2460           37.4322
  1326    73.5511    55(7)                       56.4517           37.4020
  1327    73.6011    51(7)                       49.7811           37.3720
  1328    73.6511    49(7)                       46.7399           37.3421
  1329    73.7010    49(7)                       46.8158           37.3124
  1330    73.7511    52(7)                       48.7664           37.2829
  1331    73.8011    53(7)                       51.3889           37.2536
  1332    73.8511    52(7)                       53.6809           37.2243
  1333    73.9011    51(7)                       54.8291           37.1952
  1334    73.9510    53(7)                       54.5761           37.1664
  1335    74.0011    51(7)                       53.2309           37.1377
  1336    74.0511    48(7)                       50.9381           37.1092
  1337    74.1011    47(7)                       47.8019           37.0810
  1338    74.1511    46(7)                       44.5444           37.0529
  1339    74.2010    41(6)                       42.0819           37.0250
  1340    74.2511    41(6)                       40.8569           36.9972
  1341    74.3011    43(7)                       40.8737           36.9697
  1342    74.3511    43(7)                       42.3689           36.9424
  1343    74.4011    48(7)                       46.5735           36.9154
  1344    74.4510    59(8)                       56.2287           36.8886
  1345    74.5011    79(9)                       75.6313           36.8619
  1346    74.5511    108(10)                    108.7047           36.8356
  1347    74.6011    151(12)                    154.2427           36.8094
  1348    74.6511    197(14)                    202.0428           36.7835
  1349    74.7010    219(15)                    234.7717           36.7578
  1350    74.7511    221(15)                    236.2110           36.7324
  1351    74.8011    199(14)                    208.7571           36.7071
  1352    74.8511    172(13)                    176.7861           36.6822
  1353    74.9011    155(12)                    162.5608           36.6575
  1354    74.9510    154(12)                    168.2471           36.6330
  1355    75.0011    159(13)                    179.2876           36.6088
  1356    75.0511    167(13)                    182.0642           36.5849
  1357    75.1011    163(13)                    176.7788           36.5613
  1358    75.1511    146(12)                    168.3173           36.5379
  1359    75.2010    136(12)                    154.1677           36.5148
  1360    75.2511    116(11)                    130.3013           36.4920
  1361    75.3011    97(10)                     102.6184           36.4695
  1362    75.3511    76(9)                       81.9998           36.4471
  1363    75.4011    74(9)                       74.1027           36.4251
  1364    75.4510    76(9)                       76.6424           36.4034
  1365    75.5011    76(9)                       83.4582           36.3820
  1366    75.5511    82(9)                       89.2390           36.3609
  1367    75.6011    88(9)                       92.9114           36.3401
  1368    75.6511    95(10)                      96.1300           36.3195
  1369    75.7010    99(10)                      98.8605           36.2993
  1370    75.7511    112(11)                     99.4856           36.2793
  1371    75.8011    118(11)                     98.8114           36.2598
  1372    75.8511    122(11)                     98.5217           36.2405
  1373    75.9011    116(11)                     96.7631           36.2214
  1374    75.9510    101(10)                     89.7855           36.2027
  1375    76.0011    85(9)                       78.2671           36.1844
  1376    76.0511    72(8)                       66.5517           36.1664
  1377    76.1011    61(8)                       57.6435           36.1486
  1378    76.1511    58(8)                       51.8542           36.1312
  1379    76.2010    53(7)                       48.7761           36.1141
  1380    76.2511    52(7)                       49.3585           36.0973
  1381    76.3011    59(8)                       56.1324           36.0810
  1382    76.3511    76(9)                       71.6162           36.0648
  1383    76.4011    93(10)                      95.9145           36.0489
  1384    76.4510    123(11)                    125.2898           36.0335
  1385    76.5011    146(12)                    152.9467           36.0184
  1386    76.5511    161(13)                    173.5339           36.0036
  1387    76.6011    169(13)                    188.6301           35.9892
  1388    76.6511    175(13)                    201.8478           35.9751
  1389    76.7010    183(14)                    209.8197           35.9612
  1390    76.7511    196(14)                    205.7197           35.9479
  1391    76.8011    198(14)                    189.7030           35.9348
  1392    76.8511    188(14)                    167.1099           35.9220
  1393    76.9011    166(13)                    144.8220           35.9096
  1394    76.9510    139(12)                    128.2321           35.8976
  1395    77.0011    125(11)                    117.7200           35.8857
  1396    77.0511    107(10)                    110.0462           35.8744
  1397    77.1011    102(10)                    104.1128           35.8633
  1398    77.1511    99(10)                     100.7034           35.8526
  1399    77.2010    92(10)                      97.7936           35.8423
  1400    77.2511    88(9)                       91.1394           35.8322
  1401    77.3011    80(9)                       81.4062           35.8226
  1402    77.3511    74(9)                       75.7611           35.8133
  1403    77.4011    80(9)                       80.9891           35.8043
  1404    77.4510    100(10)                     97.6584           35.7958
  1405    77.5011    125(11)                    119.8586           35.7875
  1406    77.5511    142(12)                    138.6934           35.7796
  1407    77.6011    161(13)                    148.2386           35.7721
  1408    77.6511    164(13)                    150.1375           35.7648
  1409    77.7010    163(13)                    147.2911           35.7580
  1410    77.7511    149(12)                    136.8536           35.7514
  1411    77.8011    124(11)                    116.2194           35.7453
  1412    77.8511    101(10)                     92.2932           35.7395
  1413    77.9011    81(9)                       77.3534           35.7340
  1414    77.9510    84(9)                       80.8359           35.7289
  1415    78.0011    108(10)                    104.9518           35.7242
  1416    78.0511    144(12)                    143.2743           35.7197
  1417    78.1011    185(14)                    180.7024           35.7156
  1418    78.1511    205(14)                    197.1981           35.7118
  1419    78.2010    193(14)                    181.4176           35.7084
  1420    78.2511    159(13)                    144.9820           35.7055
  1421    78.3011    128(11)                    111.6383           35.7027
  1422    78.3511    110(10)                     98.0468           35.7002
  1423    78.4011    112(11)                    107.0711           35.6982
  1424    78.4510    132(11)                    131.2169           35.6966
  1425    78.5011    152(12)                    157.1948           35.6953
  1426    78.5511    170(13)                    170.8270           35.6942
  1427    78.6011    162(13)                    162.6108           35.6935
  1428    78.6511    140(12)                    135.4048           35.6932
  1429    78.7010    116(11)                    104.7612           35.6931
  1430    78.7511    95(10)                      86.0608           35.6935
  1431    78.8011    86(9)                       84.5086           35.6941
  1432    78.8511    97(10)                      94.5307           35.6951
  1433    78.9011    98(10)                     104.9552           35.6965
  1434    78.9510    93(10)                     105.2277           35.6981
  1435    79.0011    91(10)                      93.1429           35.7000
  1436    79.0511    74(9)                       76.8068           35.7024
  1437    79.1011    66(8)                       66.8508           35.7050
  1438    79.1511    72(8)                       69.5439           35.7079
  1439    79.2010    91(10)                      84.9855           35.7111
  1440    79.2511    111(11)                    108.1466           35.7146
  1441    79.3011    127(11)                    129.9291           35.7186
  1442    79.3511    138(12)                    140.1291           35.7228
  1443    79.4011    130(11)                    134.9541           35.7272
  1444    79.4510    119(11)                    119.6449           35.7321
  1445    79.5011    103(10)                    103.9148           35.7372
  1446    79.5511    95(10)                      98.3527           35.7426
  1447    79.6011    108(10)                    110.2541           35.7483
  1448    79.6511    136(12)                    140.1231           35.7543
  1449    79.7010    171(13)                    180.2199           35.7606
  1450    79.7511    202(14)                    217.3483           35.7671
  1451    79.8011    226(15)                    238.2076           35.7740
  1452    79.8511    231(15)                    236.9630           35.7812
  1453    79.9011    218(15)                    219.6885           35.7888
  1454    79.9510    197(14)                    195.7698           35.7965
  1455    80.0011    172(13)                    168.4187           35.8044
  1456    80.0511    143(12)                    138.5062           35.8127
  1457    80.1011    114(11)                    112.2761           35.8213
  1458    80.1511    99(10)                      97.0039           35.8301
  1459    80.2010    95(10)                      93.3040           35.8393
  1460    80.2511    99(10)                      94.2833           35.8486
  1461    80.3011    94(10)                      91.6396           35.8583
  1462    80.3511    83(9)                       82.3625           35.8682
  1463    80.4011    73(9)                       70.3223           35.8784
  1464    80.4510    63(8)                       60.9989           35.8888
  1465    80.5011    59(8)                       56.5717           35.8995
  1466    80.5511    56(7)                       55.4804           35.9105
  1467    80.6011    55(7)                       55.0107           35.9216
  1468    80.6511    53(7)                       53.5132           35.9331
  1469    80.7010    51(7)                       51.6018           35.9448
  1470    80.7511    55(7)                       51.9080           35.9566
  1471    80.8011    57(8)                       57.1530           35.9688
  1472    80.8511    67(8)                       68.0409           35.9813
  1473    80.9011    83(9)                       81.9800           35.9939
  1474    80.9510    95(10)                      93.3122           36.0067
  1475    81.0011    98(10)                      95.9790           36.0197
  1476    81.0511    94(10)                      88.5169           36.0330
  1477    81.1011    81(9)                       75.5309           36.0464
  1478    81.1511    67(8)                       64.0383           36.0601
  1479    81.2010    63(8)                       59.5199           36.0740
  1480    81.2511    66(8)                       65.2288           36.0881
  1481    81.3011    86(9)                       83.1673           36.1024
  1482    81.3511    111(11)                    113.2916           36.1169
  1483    81.4011    147(12)                    150.3700           36.1315
  1484    81.4510    181(13)                    182.3221           36.1464
  1485    81.5011    185(14)                    195.0255           36.1615
  1486    81.5511    180(13)                    181.3503           36.1767
  1487    81.6011    150(12)                    149.0503           36.1922
  1488    81.6511    121(11)                    117.0734           36.2078
  1489    81.7010    113(11)                    101.8675           36.2236
  1490    81.7511    117(11)                    109.4990           36.2396
  1491    81.8011    143(12)                    135.9701           36.2557
  1492    81.8511    176(13)                    170.4480           36.2720
  1493    81.9011    208(14)                    198.5944           36.2884
  1494    81.9510    205(14)                    209.9810           36.3051
  1495    82.0011    204(14)                    205.7042           36.3219
  1496    82.0511    193(14)                    194.5532           36.3387
  1497    82.1011    188(14)                    183.8288           36.3558
  1498    82.1511    186(14)                    176.6297           36.3730
  1499    82.2010    179(13)                    170.7875           36.3903
  1500    82.2511    159(13)                    159.5082           36.4078
  1501    82.3011    133(12)                    138.4249           36.4254
  1502    82.3511    117(11)                    110.5481           36.4432
  1503    82.4011    90(9)                       83.3782           36.4611
  1504    82.4510    66(8)                       63.0242           36.4791
  1505    82.5011    56(7)                       51.0546           36.4971
  1506    82.5511    56(7)                       45.7935           36.5153
  1507    82.6011    52(7)                       44.8719           36.5336
  1508    82.6511    53(7)                       46.7261           36.5520
  1509    82.7010    58(8)                       50.9270           36.5706
  1510    82.7511    61(8)                       58.0117           36.5892
  1511    82.8011    69(8)                       69.2317           36.6079
  1512    82.8511    89(9)                       85.5524           36.6268
  1513    82.9011    104(10)                    106.2777           36.6457
  1514    82.9510    125(11)                    129.1273           36.6646
  1515    83.0011    144(12)                    150.9747           36.6837
  1516    83.0511    162(13)                    169.4630           36.7029
  1517    83.1011    176(13)                    185.1771           36.7221
  1518    83.1511    183(14)                    196.8832           36.7414
  1519    83.2010    189(14)                    197.2662           36.7607
  1520    83.2511    171(13)                    179.7548           36.7801
  1521    83.3011    142(12)                    148.3245           36.7996
  1522    83.3511    117(11)                    117.1050           36.8192
  1523    83.4011    104(10)                     99.6808           36.8388
  1524    83.4510    108(10)                    100.9565           36.8585
  1525    83.5011    129(11)                    116.4779           36.8781
  1526    83.5511    144(12)                    135.9523           36.8979
  1527    83.6011    148(12)                    147.7848           36.9177
  1528    83.6511    144(12)                    143.9680           36.9376
  1529    83.7010    126(11)                    124.2401           36.9574
  1530    83.7511    95(10)                      96.9493           36.9774
  1531    83.8011    69(8)                       72.3517           36.9972
  1532    83.8511    50(7)                       55.8798           37.0172
  1533    83.9011    49(7)                       47.3532           37.0371
  1534    83.9510    48(7)                       44.2472           37.0572
  1535    84.0011    46(7)                       44.7727           37.0771
  1536    84.0511    56(7)                       48.9134           37.0971
  1537    84.1011    59(8)                       57.8956           37.1172
  1538    84.1511    76(9)                       73.1269           37.1372
  1539    84.2010    100(10)                     95.0964           37.1572
  1540    84.2511    118(11)                    122.2626           37.1772
  1541    84.3011    146(12)                    150.4858           37.1973
  1542    84.3511    169(13)                    174.4971           37.2173
  1543    84.4011    186(14)                    188.2407           37.2373
  1544    84.4510    184(14)                    185.1885           37.2574
  1545    84.5011    165(13)                    164.2704           37.2774
  1546    84.5511    139(12)                    133.2742           37.2974
  1547    84.6011    109(10)                    103.6776           37.3174
  1548    84.6511    87(9)                       83.3339           37.3373
  1549    84.7010    77(9)                       74.2965           37.3573
  1550    84.7511    80(9)                       74.3314           37.3771
  1551    84.8011    85(9)                       79.0939           37.3969
  1552    84.8511    88(9)                       84.1070           37.4168
  1553    84.9011    88(9)                       86.5966           37.4366
  1554    84.9510    96(10)                      86.9580           37.4564
  1555    85.0011    92(10)                      88.8431           37.4761
  1556    85.0511    94(10)                      96.0015           37.4958
  1557    85.1011    106(10)                    108.4777           37.5155
  1558    85.1511    116(11)                    121.1042           37.5350
  1559    85.2010    128(11)                    125.7595           37.5546
  1560    85.2511    122(11)                    117.2264           37.5742
  1561    85.3011    102(10)                     99.1881           37.5937
  1562    85.3511    83(9)                       81.5654           37.6130
  1563    85.4011    75(9)                       73.5496           37.6324
  1564    85.4510    76(9)                       80.1725           37.6517
  1565    85.5011    94(10)                     102.3283           37.6709
  1566    85.5511    120(11)                    137.2401           37.6901
  1567    85.6011    151(12)                    177.6064           37.7092
  1568    85.6511    185(14)                    212.2821           37.7282
  1569    85.7010    209(14)                    231.0154           37.7472
  1570    85.7511    211(15)                    228.1804           37.7662
  1571    85.8011    193(14)                    206.3654           37.7849
  1572    85.8511    171(13)                    176.3506           37.8036
  1573    85.9011    146(12)                    150.1318           37.8224
  1574    85.9510    142(12)                    135.7677           37.8410
  1575    86.0011    140(12)                    133.7323           37.8595
  1576    86.0511    138(12)                    136.7202           37.8779
  1577    86.1011    133(12)                    134.0165           37.8964
  1578    86.1511    120(11)                    119.9075           37.9147
  1579    86.2010    100(10)                     98.5007           37.9328
  1580    86.2511    85(9)                       78.4445           37.9510
  1581    86.3011    70(8)                       65.4547           37.9690
  1582    86.3511    69(8)                       59.7225           37.9870
  1583    86.4011    69(8)                       57.9604           38.0049
  1584    86.4510    66(8)                       56.7329           38.0227
  1585    86.5011    63(8)                       54.3322           38.0404
  1586    86.5511    58(8)                       50.7980           38.0580
  1587    86.6011    50(7)                       47.1278           38.0755
  1588    86.6511    47(7)                       44.2601           38.0929
  1589    86.7010    41(6)                       42.5616           38.1102
  1590    86.7511    46(7)                       41.8665           38.1274
  1591    86.8011    43(7)                       41.8405           38.1446
  1592    86.8511    45(7)                       42.3062           38.1617
  1593    86.9011    45(7)                       43.4366           38.1787
  1594    86.9510    47(7)                       45.6247           38.1956
  1595    87.0011    54(7)                       48.9753           38.2124
  1596    87.0511    53(7)                       52.9078           38.2290
  1597    87.1011    54(7)                       56.1242           38.2456
  1598    87.1511    58(8)                       57.2255           38.2621
  1599    87.2010    58(8)                       56.0275           38.2784
  1600    87.2511    57(8)                       54.0629           38.2947
  1601    87.3011    56(7)                       53.1555           38.3109
  1602    87.3511    57(8)                       54.0851           38.3270
  1603    87.4011    59(8)                       56.2665           38.3430
  1604    87.4510    63(8)                       58.3053           38.3588
  1605    87.5011    59(8)                       58.7274           38.3745
  1606    87.5511    59(8)                       56.7722           38.3902
  1607    87.6011    55(7)                       52.8774           38.4058
  1608    87.6511    51(7)                       48.4542           38.4213
  1609    87.7010    46(7)                       44.8701           38.4368
  1610    87.7511    44(7)                       42.8161           38.4521
  1611    87.8011    45(7)                       42.4808           38.4672
  1612    87.8511    48(7)                       44.0761           38.4824
  1613    87.9011    52(7)                       48.0943           38.4974
  1614    87.9510    57(8)                       55.0013           38.5123
  1615    88.0011    66(8)                       64.5107           38.5270
  1616    88.0511    75(9)                       74.9875           38.5417
  1617    88.1011    83(9)                       83.5200           38.5563
  1618    88.1511    81(9)                       87.2181           38.5708
  1619    88.2010    81(9)                       85.1693           38.5853
  1620    88.2511    76(9)                       78.8320           38.5997
  1621    88.3011    65(8)                       70.6246           38.6139
  1622    88.3511    61(8)                       62.5333           38.6282
  1623    88.4011    55(7)                       56.1850           38.6422
  1624    88.4510    52(7)                       53.0677           38.6561
  1625    88.5011    55(7)                       54.6743           38.6699
  1626    88.5511    60(8)                       62.6066           38.6837
  1627    88.6011    71(8)                       77.9873           38.6974
  1628    88.6511    86(9)                      100.0366           38.7110
  1629    88.7010    106(10)                    124.6181           38.7246
  1630    88.7511    117(11)                    143.8935           38.7380
  1631    88.8011    121(11)                    148.7237           38.7515
  1632    88.8511    112(11)                    135.6357           38.7647
  1633    88.9011    94(10)                     111.0766           38.7780
  1634    88.9510    77(9)                       85.8816           38.7911
  1635    89.0011    63(8)                       68.3687           38.8041
  1636    89.0511    61(8)                       62.0700           38.8171
  1637    89.1011    67(8)                       67.4293           38.8300
  1638    89.1511    85(9)                       83.6184           38.8428
  1639    89.2010    107(10)                    108.4908           38.8556
  1640    89.2511    136(12)                    137.7185           38.8683
  1641    89.3011    159(13)                    164.6049           38.8808
  1642    89.3511    176(13)                    182.4684           38.8934
  1643    89.4011    176(13)                    189.5013           38.9060
  1644    89.4510    171(13)                    187.9127           38.9184
  1645    89.5011    162(13)                    178.3703           38.9307
  1646    89.5511    138(12)                    160.1581           38.9430
  1647    89.6011    118(11)                    135.8090           38.9553
  1648    89.6511    95(10)                     111.1387           38.9674
  1649    89.7010    79(9)                       92.0047           38.9796
  1650    89.7511    76(9)                       81.7954           38.9917
  1651    89.8011    81(9)                       80.3897           39.0038
  1652    89.8511    89(9)                       84.6401           39.0158
  1653    89.9011    90(9)                       89.7568           39.0277
  1654    89.9510    93(10)                      91.5601           39.0396
  1655    90.0011    89(9)                       89.5175           39.0514
  1656    90.0511    85(9)                       87.3707           39.0632
  1657    90.1011    87(9)                       89.9628           39.0749
  1658    90.1511    97(10)                      99.4501           39.0867
  1659    90.2010    110(10)                    113.3455           39.0983
  1660    90.2511    120(11)                    125.2708           39.1100
  1661    90.3011    126(11)                    128.4982           39.1217
  1662    90.3511    127(11)                    121.0084           39.1332
  1663    90.4011    105(10)                    107.5493           39.1448
  1664    90.4510    95(10)                      96.6892           39.1563
  1665    90.5011    100(10)                     95.4189           39.1678
  1666    90.5511    104(10)                    105.7084           39.1793
  1667    90.6011    122(11)                    124.1850           39.1908
  1668    90.6511    144(12)                    143.8559           39.2023
  1669    90.7010    164(13)                    157.3542           39.2137
  1670    90.7511    172(13)                    161.3042           39.2251
  1671    90.8011    175(13)                    157.0507           39.2366
  1672    90.8511    167(13)                    147.7071           39.2480
  1673    90.9011    148(12)                    135.4238           39.2594
  1674    90.9510    127(11)                    121.1603           39.2708
  1675    91.0011    116(11)                    106.2911           39.2822
  1676    91.0511    99(10)                      93.2805           39.2936
  1677    91.1011    91(10)                      84.5829           39.3051
  1678    91.1511    92(10)                      81.1210           39.3165
  1679    91.2010    102(10)                     81.8767           39.3279
  1680    91.2511    101(10)                     84.9328           39.3394
  1681    91.3011    104(10)                     88.2314           39.3508
  1682    91.3511    96(10)                      89.7033           39.3623
  1683    91.4011    94(10)                      88.3371           39.3739
  1684    91.4510    93(10)                      85.9414           39.3854
  1685    91.5011    87(9)                       86.3213           39.3970
  1686    91.5511    88(9)                       92.0959           39.4086
  1687    91.6011    98(10)                     102.2552           39.4202
  1688    91.6511    102(10)                    112.0665           39.4318
  1689    91.7010    106(10)                    115.3678           39.4435
  1690    91.7511    101(10)                    108.6990           39.4552
  1691    91.8011    88(9)                       94.2070           39.4669
  1692    91.8511    73(9)                       77.7272           39.4788
  1693    91.9011    59(8)                       64.5133           39.4905
  1694    91.9510    58(8)                       57.0485           39.5024
  1695    92.0011    56(7)                       55.1964           39.5143
  1696    92.0511    59(8)                       57.4546           39.5264
  1697    92.1011    64(8)                       61.8793           39.5384
  1698    92.1511    68(8)                       66.5217           39.5505
  1699    92.2010    72(8)                       69.8641           39.5627
  1700    92.2511    74(9)                       71.7773           39.5749
  1701    92.3011    75(9)                       73.8937           39.5872
  1702    92.3511    81(9)                       78.0238           39.5995
  1703    92.4011    94(10)                      84.2555           39.6119
  1704    92.4510    101(10)                     90.3251           39.6244
  1705    92.5011    99(10)                      92.7462           39.6368
  1706    92.5511    99(10)                      89.6944           39.6495
  1707    92.6011    96(10)                      83.4709           39.6623
  1708    92.6511    87(9)                       79.4789           39.6750
  1709    92.7010    87(9)                       83.5772           39.6878
  1710    92.7511    100(10)                     99.5919           39.7008
  1711    92.8011    134(12)                    127.4893           39.7138
  1712    92.8511    175(13)                    162.5968           39.7270
  1713    92.9011    205(14)                    196.4337           39.7402
  1714    92.9510    229(15)                    219.7602           39.7535
  1715    93.0011    239(15)                    228.9607           39.7669
  1716    93.0511    245(16)                    230.8462           39.7804
  1717    93.1011    253(16)                    237.1078           39.7940
  1718    93.1511    268(16)                    253.6246           39.8078
  1719    93.2010    293(17)                    274.8852           39.8215
  1720    93.2511    295(17)                    287.1385           39.8355
  1721    93.3011    292(17)                    278.0494           39.8496
  1722    93.3511    252(16)                    245.7502           39.8637
  1723    93.4011    193(14)                    200.1353           39.8780
  1724    93.4510    148(12)                    154.7650           39.8923
  1725    93.5011    112(11)                    118.8501           39.9068
  1726    93.5511    92(10)                      94.8505           39.9214
  1727    93.6011    77(9)                       80.8457           39.9360
  1728    93.6511    75(9)                       74.4458           39.9509
  1729    93.7010    74(9)                       74.4373           39.9659
  1730    93.7511    78(9)                       80.1233           39.9810
  1731    93.8011    81(9)                       90.0264           39.9963
  1732    93.8511    90(9)                      101.2378           40.0116
  1733    93.9011    104(10)                    110.0470           40.0270
  1734    93.9510    116(11)                    113.0750           40.0427
  1735    94.0011    101(10)                    108.6842           40.0585
  1736    94.0511    99(10)                      98.8339           40.0744
  1737    94.1011    89(9)                       88.3159           40.0904
  1738    94.1511    85(9)                       81.7807           40.1065
  1739    94.2010    87(9)                       81.6971           40.1230
  1740    94.2511    94(10)                      87.9696           40.1394
  1741    94.3011    107(10)                     98.7171           40.1559
  1742    94.3511    118(11)                    111.4718           40.1726
  1743    94.4011    128(11)                    124.2880           40.1896
  1744    94.4510    141(12)                    135.4156           40.2066
  1745    94.5011    146(12)                    142.0816           40.2238
  1746    94.5511    146(12)                    141.1649           40.2411
  1747    94.6011    135(12)                    131.7738           40.2585
  1748    94.6511    117(11)                    116.2679           40.2762
  1749    94.7010    95(10)                      98.6079           40.2940
  1750    94.7511    77(9)                       82.4728           40.3120
  1751    94.8011    70(8)                       70.4888           40.3301
  1752    94.8511    63(8)                       64.1283           40.3484
  1753    94.9011    66(8)                       64.0988           40.3668
  1754    94.9510    72(8)                       70.7354           40.3855
  1755    95.0011    79(9)                       84.0263           40.4042
  1756    95.0511    103(10)                    103.3800           40.4231
  1757    95.1011    125(11)                    127.1190           40.4422
  1758    95.1511    143(12)                    152.3872           40.4615
  1759    95.2010    163(13)                    175.5070           40.4810
  1760    95.2511    176(13)                    192.4730           40.5005
  1761    95.3011    180(13)                    199.9032           40.5202
  1762    95.3511    187(14)                    195.9100           40.5401
  1763    95.4011    172(13)                    181.1562           40.5602
  1764    95.4510    151(12)                    159.8548           40.5805
  1765    95.5011    134(12)                    137.5868           40.6009
  1766    95.5511    113(11)                    118.3907           40.6216
  1767    95.6011    105(10)                    103.3284           40.6423
  1768    95.6511    95(10)                      91.5133           40.6632
  1769    95.7010    88(9)                       82.5445           40.6843
  1770    95.7511    82(9)                       77.6883           40.7056
  1771    95.8011    82(9)                       79.2865           40.7270
  1772    95.8511    94(10)                      89.4159           40.7486
  1773    95.9011    108(10)                    108.5293           40.7704
  1774    95.9510    133(12)                    134.4384           40.7924
  1775    96.0011    157(13)                    162.0576           40.8145
  1776    96.0511    181(13)                    184.4290           40.8369
  1777    96.1011    190(14)                    195.5579           40.8593
  1778    96.1511    191(14)                    193.3061           40.8819
  1779    96.2010    182(13)                    181.0283           40.9047
  1780    96.2511    168(13)                    166.3035           40.9278
  1781    96.3011    162(13)                    156.1453           40.9510
  1782    96.3511    154(12)                    153.2437           40.9743
  1783    96.4011    152(12)                    155.4953           40.9978
  1784    96.4510    144(12)                    157.6602           41.0216
  1785    96.5011    137(12)                    154.2916           41.0454
  1786    96.5511    125(11)                    143.6759           41.0695
  1787    96.6011    114(11)                    128.9929           41.0936
  1788    96.6511    114(11)                    115.0440           41.1180
  1789    96.7010    104(10)                    104.7932           41.1425
  1790    96.7511    96(10)                      98.1147           41.1673
  1791    96.8011    93(10)                      92.9465           41.1922
  1792    96.8511    88(9)                       87.7226           41.2172
  1793    96.9011    78(9)                       83.0426           41.2424
  1794    96.9510    80(9)                       81.5416           41.2678
  1795    97.0011    85(9)                       86.3982           41.2932
  1796    97.0511    97(10)                      99.6122           41.3190
  1797    97.1011    119(11)                    120.7285           41.3448
  1798    97.1511    147(12)                    146.3200           41.3709
  1799    97.2010    169(13)                    170.3066           41.3971
  1800    97.2511    187(14)                    185.4312           41.4234
  1801    97.3011    187(14)                    186.7796           41.4500
  1802    97.3511    165(13)                    175.1920           41.4767
  1803    97.4011    145(12)                    156.1798           41.5035
  1804    97.4510    126(11)                    136.0929           41.5305
  1805    97.5011    104(10)                    118.8857           41.5577
  1806    97.5511    96(10)                     105.0589           41.5849
  1807    97.6011    89(9)                       93.1078           41.6124
  1808    97.6511    78(9)                       81.9614           41.6399
  1809    97.7010    68(8)                       71.9768           41.6677
  1810    97.7511    61(8)                       64.2859           41.6956
  1811    97.8011    60(8)                       60.0300           41.7236
  1812    97.8511    59(8)                       59.9200           41.7518
  1813    97.9011    66(8)                       64.1713           41.7801
  1814    97.9510    74(9)                       72.5497           41.8086
  1815    98.0011    88(9)                       84.3234           41.8372
  1816    98.0511    103(10)                     98.2169           41.8660
  1817    98.1011    117(11)                    112.6667           41.8949
  1818    98.1511    127(11)                    126.7533           41.9239
  1819    98.2010    132(11)                    141.4318           41.9531
  1820    98.2511    154(12)                    159.6947           41.9824
  1821    98.3011    174(13)                    185.0206           42.0118
  1822    98.3511    204(14)                    218.8817           42.0414
  1823    98.4011    245(16)                    258.4467           42.0710
  1824    98.4510    273(17)                    295.8173           42.1008
  1825    98.5011    307(18)                    319.9388           42.1308
  1826    98.5511    317(18)                    320.6792           42.1608
  1827    98.6011    288(17)                    295.4250           42.1910
  1828    98.6511    250(16)                    252.8606           42.2213
  1829    98.7010    201(14)                    207.8612           42.2517
  1830    98.7511    171(13)                    173.5775           42.2822
  1831    98.8011    159(13)                    156.6287           42.3128
  1832    98.8511    167(13)                    156.0550           42.3436
  1833    98.9011    185(14)                    165.3248           42.3744
  1834    98.9510    202(14)                    175.7030           42.4053
  1835    99.0011    205(14)                    179.7494           42.4364
  1836    99.0511    197(14)                    173.7457           42.4675
  1837    99.1011    179(13)                    158.3517           42.4988
  1838    99.1511    151(12)                    137.5973           42.5301
  1839    99.2010    126(11)                    116.9768           42.5616
  1840    99.2511    105(10)                    101.3221           42.5931
  1841    99.3011    97(10)                      93.7029           42.6247
  1842    99.3511    104(10)                     95.2372           42.6563
  1843    99.4011    116(11)                    105.1248           42.6881
  1844    99.4510    132(11)                    120.8551           42.7200
  1845    99.5011    158(13)                    138.4316           42.7519
  1846    99.5511    168(13)                    152.9266           42.7839
  1847    99.6011    176(13)                    159.7698           42.8160
  1848    99.6511    181(13)                    156.9202           42.8482
  1849    99.7010    157(13)                    145.8706           42.8803
  1850    99.7511    137(12)                    130.4079           42.9125
  1851    99.8011    119(11)                    114.5248           42.9450
  1852    99.8511    107(10)                    100.7371           42.9774
  1853    99.9011    94(10)                      89.6942           43.0098
  1854    99.9510    81(9)                       81.1059           43.0423
  1855   100.0011    77(9)                       74.8316           43.0747
  1856   100.0511    72(8)                       71.1802           43.1074
  1857   100.1011    70(8)                       70.4834           43.1401
  1858   100.1511    74(9)                       72.6473           43.1727
  1859   100.2010    83(9)                       76.9608           43.2054
  1860   100.2511    89(9)                       82.2054           43.2382
  1861   100.3011    91(10)                      87.1115           43.2710
  1862   100.3511    91(10)                      90.9419           43.3039
  1863   100.4011    94(10)                      93.8036           43.3367
  1864   100.4510    98(10)                      96.2338           43.3696
  1865   100.5011    98(10)                      98.3851           43.4025
  1866   100.5511    94(10)                      99.5556           43.4355
  1867   100.6011    94(10)                      98.5108           43.4684
  1868   100.6511    87(9)                       94.5239           43.5013
  1869   100.7010    82(9)                       88.1561           43.5342
  1870   100.7511    75(9)                       80.9282           43.5672
  1871   100.8011    67(8)                       74.6642           43.6002
  1872   100.8511    70(8)                       70.9875           43.6333
  1873   100.9011    72(8)                       70.9701           43.6663
  1874   100.9510    83(9)                       74.9758           43.6993
  1875   101.0011    88(9)                       82.5631           43.7323
  1876   101.0511    99(10)                      92.4207           43.7652
  1877   101.1011    109(10)                    102.5339           43.7982
  1878   101.1511    111(11)                    110.4897           43.8311
  1879   101.2010    109(10)                    113.9840           43.8640
  1880   101.2511    110(10)                    111.8599           43.8970
  1881   101.3011    98(10)                     104.9662           43.9298
  1882   101.3511    86(9)                       95.5885           43.9627
  1883   101.4011    84(9)                       86.0957           43.9955
  1884   101.4510    76(9)                       78.0331           44.0283
  1885   101.5011    73(9)                       71.9304           44.0610
  1886   101.5511    68(8)                       67.7447           44.0938
  1887   101.6011    66(8)                       65.3772           44.1265
  1888   101.6511    69(8)                       64.8853           44.1592
  1889   101.7010    66(8)                       66.3263           44.1918
  1890   101.7511    73(9)                       69.6488           44.2243
  1891   101.8011    76(9)                       74.4871           44.2568
  1892   101.8511    77(9)                       80.2235           44.2893
  1893   101.9011    89(9)                       86.1792           44.3216
  1894   101.9510    92(10)                      91.7586           44.3540
  1895   102.0011    98(10)                      96.3687           44.3862
  1896   102.0511    103(10)                     99.4124           44.4184
  1897   102.1011    104(10)                    100.6736           44.4506
  1898   102.1511    102(10)                    100.8338           44.4827
  1899   102.2010    100(10)                    101.2032           44.5147
  1900   102.2511    102(10)                    102.8593           44.5466
  1901   102.3011    97(10)                     106.0284           44.5784
  1902   102.3511    93(10)                     110.0235           44.6103
  1903   102.4011    97(10)                     113.7648           44.6420
  1904   102.4510    103(10)                    116.6556           44.6737
  1905   102.5011    106(10)                    119.0359           44.7052
  1906   102.5511    107(10)                    121.6978           44.7365
  1907   102.6011    111(11)                    125.1784           44.7679
  1908   102.6511    118(11)                    129.4096           44.7991
  1909   102.7010    121(11)                    133.3460           44.8303
  1910   102.7511    128(11)                    135.1812           44.8614
  1911   102.8011    118(11)                    133.3405           44.8924
  1912   102.8511    113(11)                    127.7700           44.9233
  1913   102.9011    108(10)                    120.1455           44.9541
  1914   102.9510    110(10)                    113.0815           44.9847
  1915   103.0011    111(11)                    109.1114           45.0152
  1916   103.0511    114(11)                    109.6966           45.0456
  1917   103.1011    126(11)                    114.6663           45.0759
  1918   103.1511    128(11)                    122.3948           45.1062
  1919   103.2010    139(12)                    130.4305           45.1363
  1920   103.2511    148(12)                    136.2685           45.1662
  1921   103.3011    146(12)                    138.1643           45.1960
  1922   103.3511    138(12)                    135.7970           45.2257
  1923   103.4011    138(12)                    130.0839           45.2552
  1924   103.4510    129(11)                    122.2239           45.2846
  1925   103.5011    116(11)                    113.0459           45.3140
  1926   103.5511    105(10)                    103.1507           45.3433
  1927   103.6011    95(10)                      93.2684           45.3724
  1928   103.6511    87(9)                       84.2920           45.4012
  1929   103.7010    80(9)                       77.0801           45.4300
  1930   103.7511    73(9)                       72.1928           45.4586
  1931   103.8011    71(8)                       69.7425           45.4872
  1932   103.8511    73(9)                       69.4193           45.5156
  1933   103.9011    69(8)                       70.6486           45.5439
  1934   103.9510    72(8)                       72.7352           45.5719
  1935   104.0011    74(9)                       74.9049           45.5999
  1936   104.0511    78(9)                       76.4230           45.6277
  1937   104.1011    72(8)                       76.8599           45.6554
  1938   104.1511    69(8)                       76.3892           45.6829
  1939   104.2010    71(8)                       75.8602           45.7102
  1940   104.2511    73(9)                       76.5950           45.7375
  1941   104.3011    73(9)                       80.1332           45.7645
  1942   104.3511    87(9)                       87.9716           45.7914
  1943   104.4011    111(11)                    101.1482           45.8181
  1944   104.4510    131(11)                    119.7651           45.8447
  1945   104.5011    157(13)                    142.6599           45.8711
  1946   104.5511    185(14)                    167.2622           45.8973
  1947   104.6011    210(14)                    189.7350           45.9235
  1948   104.6511    228(15)                    205.7061           45.9494
  1949   104.7010    228(15)                    211.8794           45.9752
  1950   104.7511    227(15)                    207.8973           46.0009
  1951   104.8011    199(14)                    196.4736           46.0264
  1952   104.8511    185(14)                    182.0098           46.0516
  1953   104.9011    172(13)                    168.9996           46.0768
  1954   104.9510    146(12)                    160.7175           46.1019
  1955   105.0011    136(12)                    158.5058           46.1268
  1956   105.0511    140(12)                    161.9203           46.1514
  1957   105.1011    142(12)                    169.2089           46.1758
  1958   105.1511    150(12)                    178.0218           46.2002
  1959   105.2010    162(13)                    186.1360           46.2244
  1960   105.2511    166(13)                    192.3671           46.2484
  1961   105.3011    174(13)                    197.0721           46.2721
  1962   105.3511    191(14)                    201.3399           46.2958
  1963   105.4011    202(14)                    205.5695           46.3194
  1964   105.4510    206(14)                    208.8144           46.3428
  1965   105.5011    211(15)                    208.9542           46.3660
  1966   105.5511    208(14)                    203.7515           46.3890
  1967   105.6011    196(14)                    192.0313           46.4119
  1968   105.6511    175(13)                    174.3642           46.4345
  1969   105.7010    158(13)                    153.0389           46.4570
  1970   105.7511    134(12)                    131.2441           46.4794
  1971   105.8011    102(10)                    111.8792           46.5017
  1972   105.8511    92(10)                      96.7248           46.5238
  1973   105.9011    81(9)                       86.2558           46.5456
  1974   105.9510    74(9)                       79.8947           46.5673
  1975   106.0011    65(8)                       76.5052           46.5890
  1976   106.0511    70(8)                       74.9434           46.6104
  1977   106.1011    72(8)                       74.4486           46.6317
  1978   106.1511    68(8)                       74.7297           46.6527
  1979   106.2010    70(8)                       75.7419           46.6737
  1980   106.2511    73(9)                       77.4623           46.6944
  1981   106.3011    78(9)                       79.7733           46.7151
  1982   106.3511    78(9)                       82.4668           46.7356
  1983   106.4011    84(9)                       85.2196           46.7559
  1984   106.4510    91(10)                      87.5224           46.7760
  1985   106.5011    88(9)                       88.6840           46.7961
  1986   106.5511    86(9)                       88.0939           46.8160
  1987   106.6011    84(9)                       85.5499           46.8356
  1988   106.6511    79(9)                       81.4839           46.8552
  1989   106.7010    73(9)                       76.7930           46.8748
  1990   106.7511    73(9)                       72.5373           46.8941
  1991   106.8011    71(8)                       69.6530           46.9132
  1992   106.8511    69(8)                       68.7870           46.9322
  1993   106.9011    69(8)                       70.2194           46.9511
  1994   106.9510    70(8)                       73.8362           46.9699
  1995   107.0011    81(9)                       79.1546           46.9885
  1996   107.0511    88(9)                       85.3828           47.0069
  1997   107.1011    95(10)                      91.5435           47.0252
  1998   107.1511    100(10)                     96.7187           47.0435
  1999   107.2010    100(10)                    100.2889           47.0616
  2000   107.2511    110(10)                    102.1661           47.0796
  2001   107.3011    107(10)                    102.8364           47.0975
  2002   107.3511    111(11)                    103.1644           47.1151
  2003   107.4011    119(11)                    103.9599           47.1327
  2004   107.4510    121(11)                    105.5420           47.1502
  2005   107.5011    114(11)                    107.5376           47.1676
  2006   107.5511    124(11)                    108.9762           47.1848
  2007   107.6011    118(11)                    108.7119           47.2020
  2008   107.6511    120(11)                    106.0557           47.2190
  2009   107.7010    107(10)                    101.2153           47.2359
  2010   107.7511    99(10)                      95.1389           47.2528
  2011   107.8011    91(10)                      89.0293           47.2696
  2012   107.8511    82(9)                       83.9177           47.2863
  2013   107.9011    78(9)                       80.4689           47.3029
  2014   107.9510    82(9)                       78.9731           47.3195
  2015   108.0011    86(9)                       79.4657           47.3358
  2016   108.0511    85(9)                       81.7884           47.3520
  2017   108.1011    93(10)                      85.6058           47.3682
  2018   108.1511    97(10)                      90.4080           47.3843
  2019   108.2010    104(10)                     95.5649           47.4004
  2020   108.2511    102(10)                    100.4345           47.4164
  2021   108.3011    104(10)                    104.6454           47.4324
  2022   108.3511    114(11)                    108.3321           47.4482
  2023   108.4011    113(11)                    112.0014           47.4640
  2024   108.4510    120(11)                    116.1230           47.4797
  2025   108.5011    123(11)                    120.7776           47.4955
  2026   108.5511    126(11)                    125.5344           47.5110
  2027   108.6011    130(11)                    129.5849           47.5266
  2028   108.6511    133(12)                    132.2374           47.5421
  2029   108.7010    138(12)                    133.3725           47.5575
  2030   108.7511    141(12)                    133.3297           47.5730
  2031   108.8011    147(12)                    132.4624           47.5884
  2032   108.8511    138(12)                    130.7817           47.6037
  2033   108.9011    135(12)                    127.9378           47.6191
  2034   108.9510    132(11)                    123.5747           47.6344
  2035   109.0011    123(11)                    117.7590           47.6497
  2036   109.0511    114(11)                    111.0847           47.6650
  2037   109.1011    105(10)                    104.4105           47.6802
  2038   109.1511    103(10)                     98.4901           47.6955
  2039   109.2010    92(10)                      93.7263           47.7107
  2040   109.2511    89(9)                       90.1071           47.7260
  2041   109.3011    95(10)                      87.3138           47.7413
  2042   109.3511    90(9)                       84.9200           47.7565
  2043   109.4011    88(9)                       82.5307           47.7717
  2044   109.4510    84(9)                       79.9114           47.7870
  2045   109.5011    81(9)                       76.9804           47.8023
  2046   109.5511    79(9)                       73.8353           47.8176
  2047   109.6011    75(9)                       70.7600           47.8329
  2048   109.6511    67(8)                       68.2224           47.8482
  2049   109.7010    70(8)                       66.7865           47.8636
  2050   109.7511    70(8)                       67.0097           47.8790
  2051   109.8011    74(9)                       69.3438           47.8944
  2052   109.8511    80(9)                       74.0261           47.9099
  2053   109.9011    90(9)                       80.9616           47.9255
  2054   109.9510    104(10)                     89.6640           47.9411
  2055   110.0011    116(11)                     99.2409           47.9567
  2056   110.0511    128(11)                    108.4543           47.9725
  2057   110.1011    138(12)                    115.8702           47.9883
  2058   110.1511    140(12)                    120.2013           48.0041
  2059   110.2010    134(12)                    120.7982           48.0200
  2060   110.2511    132(11)                    118.0573           48.0360
  2061   110.3011    121(11)                    113.2507           48.0521
  2062   110.3511    112(11)                    107.9646           48.0683
  2063   110.4011    108(10)                    103.6046           48.0846
  2064   110.4510    97(10)                     101.0820           48.1009
  2065   110.5011    95(10)                     100.7247           48.1173
  2066   110.5511    100(10)                    102.3817           48.1339
  2067   110.6011    102(10)                    105.6716           48.1506
  2068   110.6511    105(10)                    110.3089           48.1674
  2069   110.7010    111(11)                    116.2142           48.1843
  2070   110.7511    126(11)                    123.3368           48.2012
  2071   110.8011    132(11)                    131.3622           48.2183
  2072   110.8511    154(12)                    139.5520           48.2356
  2073   110.9011    163(13)                    146.7745           48.2530
  2074   110.9510    168(13)                    151.7723           48.2705
  2075   111.0011    175(13)                    153.4501           48.2883
  2076   111.0511    167(13)                    151.1388           48.3061
  2077   111.1011    164(13)                    144.8464           48.3240
  2078   111.1511    154(12)                    135.2752           48.3422
  2079   111.2010    134(12)                    123.6046           48.3605
  2080   111.2511    115(11)                    111.2307           48.3789
  2081   111.3011    97(10)                      99.5307           48.3976
  2082   111.3511    91(10)                      89.6612           48.4164
  2083   111.4011    83(9)                       82.4304           48.4353
  2084   111.4510    75(9)                       78.2948           48.4546
  2085   111.5011    77(9)                       77.3577           48.4739
  2086   111.5511    87(9)                       79.4522           48.4935
  2087   111.6011    92(10)                      84.1451           48.5131
  2088   111.6511    96(10)                      90.7724           48.5331
  2089   111.7010    111(11)                     98.4856           48.5533
  2090   111.7511    114(11)                    106.3010           48.5736
  2091   111.8011    118(11)                    113.1881           48.5941
  2092   111.8511    129(11)                    118.2646           48.6149
  2093   111.9011    130(11)                    121.1122           48.6359
  2094   111.9510    123(11)                    122.0216           48.6572
  2095   112.0011    132(11)                    121.8719           48.6786
  2096   112.0511    124(11)                    121.7382           48.7004
  2097   112.1011    123(11)                    122.4811           48.7223
  2098   112.1511    125(11)                    124.5176           48.7445
  2099   112.2010    124(11)                    127.7463           48.7669
  2100   112.2511    135(12)                    131.6449           48.7895
  2101   112.3011    131(11)                    135.5055           48.8124
  2102   112.3511    133(12)                    138.7420           48.8356
  2103   112.4011    144(12)                    141.1187           48.8590
  2104   112.4510    145(12)                    142.7923           48.8828
  2105   112.5011    148(12)                    144.0943           48.9068
  2106   112.5511    134(12)                    145.2619           48.9311
  2107   112.6011    137(12)                    146.2703           48.9557
  2108   112.6511    143(12)                    146.8084           48.9806
  2109   112.7010    140(12)                    146.4030           49.0055
  2110   112.7511    138(12)                    144.7393           49.0310
  2111   112.8011    137(12)                    142.0045           49.0567
  2112   112.8511    130(11)                    138.8990           49.0827
  2113   112.9011    122(11)                    136.2907           49.1091
  2114   112.9510    125(11)                    134.8661           49.1357
  2115   113.0011    116(11)                    134.8791           49.1626
  2116   113.0511    120(11)                    136.0779           49.1898
  2117   113.1011    122(11)                    137.7709           49.2174
  2118   113.1511    130(11)                    139.0515           49.2453
  2119   113.2010    120(11)                    139.1240           49.2734
  2120   113.2511    118(11)                    137.5190           49.3020
  2121   113.3011    121(11)                    134.1931           49.3309
  2122   113.3511    115(11)                    129.4470           49.3601
  2123   113.4011    114(11)                    123.8317           49.3897
  2124   113.4510    108(10)                    117.9767           49.4196
  2125   113.5011    99(10)                     112.3985           49.4497
  2126   113.5511    95(10)                     107.4106           49.4803
  2127   113.6011    102(10)                    103.1636           49.5113
  2128   113.6511    96(10)                      99.7522           49.5426
  2129   113.7010    95(10)                      97.3374           49.5742
  2130   113.7511    91(10)                      96.1288           49.6063
  2131   113.8011    85(9)                       96.3189           49.6388
  2132   113.8511    97(10)                      97.9484           49.6715
  2133   113.9011    102(10)                    100.8436           49.7046
  2134   113.9510    100(10)                    104.5911           49.7381
  2135   114.0011    111(11)                    108.5826           49.7721
  2136   114.0511    119(11)                    112.1292           49.8063
  2137   114.1011    126(11)                    114.6734           49.8410
  2138   114.1511    120(11)                    116.0172           49.8761
  2139   114.2010    123(11)                    116.4449           49.9114
  2140   114.2511    124(11)                    116.5923           49.9473
  2141   114.3011    129(11)                    117.2136           49.9835
  2142   114.3511    129(11)                    118.9618           50.0201
  2143   114.4011    127(11)                    122.1993           50.0572
  2144   114.4510    129(11)                    126.8758           50.0946
  2145   114.5011    146(12)                    132.5200           50.1323
  2146   114.5511    148(12)                    138.3427           50.1706
  2147   114.6011    144(12)                    143.4524           50.2093
  2148   114.6511    147(12)                    147.1530           50.2484
  2149   114.7010    143(12)                    149.2323           50.2879
  2150   114.7511    149(12)                    150.0598           50.3278
  2151   114.8011    157(13)                    150.4006           50.3681
  2152   114.8511    152(12)                    151.0706           50.4088
  2153   114.9011    166(13)                    152.6343           50.4500
  2154   114.9510    165(13)                    155.1860           50.4916
  2155   115.0011    157(13)                    158.3065           50.5337
  2156   115.0511    168(13)                    161.1740           50.5762
  2157   115.1011    182(13)                    162.8452           50.6190
  2158   115.1511    183(14)                    162.5685           50.6623
  2159   115.2010    187(14)                    160.0273           50.7061
  2160   115.2511    187(14)                    155.4892           50.7504
  2161   115.3011    185(14)                    149.7652           50.7950
  2162   115.3511    174(13)                    143.9826           50.8402
  2163   115.4011    167(13)                    139.2313           50.8857
  2164   115.4510    162(13)                    136.2766           50.9317
  2165   115.5011    152(12)                    135.4281           50.9781
  2166   115.5511    141(12)                    136.4879           51.0250
  2167   115.6011    135(12)                    138.8717           51.0723
  2168   115.6511    138(12)                    141.7770           51.1200
  2169   115.7010    134(12)                    144.3655           51.1682
  2170   115.7511    137(12)                    145.8960           51.2169
  2171   115.8011    148(12)                    145.8154           51.2660
  2172   115.8511    132(11)                    143.8124           51.3157
  2173   115.9011    127(11)                    139.7935           51.3657
  2174   115.9510    131(11)                    133.9090           51.4161
  2175   116.0011    120(11)                    126.5695           51.4671
  2176   116.0511    117(11)                    118.4340           51.5185
  2177   116.1011    103(10)                    110.2782           51.5705
  2178   116.1511    98(10)                     102.8323           51.6228
  2179   116.2010    94(10)                      96.6742           51.6755
  2180   116.2511    90(9)                       92.1882           51.7288
  2181   116.3011    87(9)                       89.5483           51.7825
  2182   116.3511    80(9)                       88.7618           51.8367
  2183   116.4011    83(9)                       89.7215           51.8914
  2184   116.4510    89(9)                       92.2520           51.9465
  2185   116.5011    99(10)                      96.1237           52.0020
  2186   116.5511    112(11)                    101.0445           52.0580
  2187   116.6011    114(11)                    106.6513           52.1145
  2188   116.6511    114(11)                    112.5072           52.1715
  2189   116.7010    130(11)                    118.1143           52.2289
  2190   116.7511    124(11)                    122.9843           52.2867
  2191   116.8011    133(12)                    126.7414           52.3451
  2192   116.8511    134(12)                    129.2155           52.4039
  2193   116.9011    131(11)                    130.4421           52.4632
  2194   116.9510    136(12)                    130.5788           52.5230
  2195   117.0011    131(11)                    129.8193           52.5831
  2196   117.0511    121(11)                    128.3693           52.6438
  2197   117.1011    119(11)                    126.4228           52.7050
  2198   117.1511    109(10)                    124.1612           52.7665
  2199   117.2010    106(10)                    121.7590           52.8285
  2200   117.2511    104(10)                    119.4318           52.8910
  2201   117.3011    100(10)                    117.4834           52.9539
  2202   117.3511    104(10)                    116.2801           53.0173
  2203   117.4011    108(10)                    116.1633           53.0812
  2204   117.4510    102(10)                    117.3648           53.1456
  2205   117.5011    104(10)                    119.9636           53.2104
  2206   117.5511    119(11)                    123.8170           53.2755
  2207   117.6011    131(11)                    128.5554           53.3412
  2208   117.6511    132(11)                    133.5951           53.4075
  2209   117.7010    153(12)                    138.1981           53.4740
  2210   117.7511    149(12)                    141.6136           53.5411
  2211   117.8011    147(12)                    143.2833           53.6085
  2212   117.8511    146(12)                    143.0604           53.6764
  2213   117.9011    145(12)                    141.2684           53.7448
  2214   117.9510    147(12)                    138.5542           53.8136
  2215   118.0011    141(12)                    135.6599           53.8829
  2216   118.0511    138(12)                    133.2279           53.9526
  2217   118.1011    132(11)                    131.6815           54.0228
  2218   118.1511    128(11)                    131.1846           54.0934
  2219   118.2010    127(11)                    131.6714           54.1644
  2220   118.2511    122(11)                    132.9161           54.2359
  2221   118.3011    123(11)                    134.6032           54.3078
  2222   118.3511    122(11)                    136.4143           54.3801
  2223   118.4011    129(11)                    138.1209           54.4529
  2224   118.4510    127(11)                    139.6417           54.5261
  2225   118.5011    127(11)                    141.0248           54.5998
  2226   118.5511    136(12)                    142.3440           54.6738
  2227   118.6011    140(12)                    143.5904           54.7482
  2228   118.6511    140(12)                    144.5999           54.8230
  2229   118.7010    137(12)                    145.0593           54.8983
  2230   118.7511    140(12)                    144.5871           54.9740
  2231   118.8011    135(12)                    142.8525           55.0501
  2232   118.8511    125(11)                    139.6670           55.1266
  2233   118.9011    130(11)                    135.0147           55.2035
  2234   118.9510    126(11)                    129.0575           55.2809
  2235   119.0011    130(11)                    122.1097           55.3587
  2236   119.0511    116(11)                    114.5971           55.4369
  2237   119.1011    99(10)                     106.9900           55.5154
  2238   119.1511    98(10)                      99.7360           55.5944
  2239   119.2010    89(9)                       93.2192           55.6736
  2240   119.2511    80(9)                       87.7295           55.7534
  2241   119.3011    78(9)                       83.4675           55.8336
  2242   119.3511    77(9)                       80.5494           55.9141
  2243   119.4011    71(8)                       79.0454           55.9950
  2244   119.4510    74(9)                       78.9653           56.0763
  2245   119.5011    75(9)                       80.2864           56.1579
  2246   119.5511    82(9)                       82.9510           56.2399
  2247   119.6011    86(9)                       86.8610           56.3223
  2248   119.6511    85(9)                       91.8739           56.4051
  2249   119.7010    96(10)                      97.7927           56.4882
  2250   119.7511    107(10)                    104.3748           56.5717
  2251   119.8011    120(11)                    111.3420           56.6556
  2252   119.8511    126(11)                    118.4024           56.7397
  2253   119.9011    135(12)                    125.2644           56.8242
  2254   119.9510    141(12)                    131.6486           56.9091
  2255   120.0011    152(12)                    137.3059           56.9945
  2256   120.0511    151(12)                    142.0636           57.0801
  2257   120.1011    151(12)                    145.8574           57.1660
  2258   120.1511    167(13)                    148.7166           57.2523
  2259   120.2010    161(13)                    150.7056           57.3388
  2260   120.2511    165(13)                    151.8642           57.4258
  2261   120.3011    175(13)                    152.1813           57.5131
  2262   120.3511    160(13)                    151.5947           57.6007
  2263   120.4011    151(12)                    150.0415           57.6887
  2264   120.4510    140(12)                    147.4993           57.7770
  2265   120.5011    146(12)                    144.0249           57.8656
  2266   120.5511    138(12)                    139.7731           57.9543
  2267   120.6011    133(12)                    135.0289           58.0435
  2268   120.6511    127(11)                    130.1901           58.1330
  2269   120.7010    121(11)                    125.7189           58.2228
  2270   120.7511    115(11)                    122.1047           58.3129
  2271   120.8011    118(11)                    119.8274           58.4033
  2272   120.8511    107(10)                    119.3045           58.4940
  2273   120.9011    113(11)                    120.8297           58.5849
  2274   120.9510    112(11)                    124.5217           58.6761
  2275   121.0011    123(11)                    130.2957           58.7677
  2276   121.0511    125(11)                    137.8533           58.8594
  2277   121.1011    135(12)                    146.6980           58.9515
  2278   121.1511    155(12)                    156.1726           59.0438
  2279   121.2010    160(13)                    165.5039           59.1364
  2280   121.2511    165(13)                    173.8937           59.2293
  2281   121.3011    173(13)                    180.6335           59.3225
  2282   121.3511    185(14)                    185.2669           59.4158
  2283   121.4011    180(13)                    187.7104           59.5095
  2284   121.4510    176(13)                    188.2491           59.6034
  2285   121.5011    174(13)                    187.4196           59.6975
  2286   121.5511    169(13)                    185.8686           59.7919
  2287   121.6011    188(14)                    184.2008           59.8864
  2288   121.6511    169(13)                    182.9007           59.9813
  2289   121.7010    175(13)                    182.2698           60.0765
  2290   121.7511    177(13)                    182.4143           60.1718
  2291   121.8011    160(13)                    183.2947           60.2674
  2292   121.8511    174(13)                    184.8060           60.3631
  2293   121.9011    176(13)                    186.8498           60.4590
  2294   121.9510    190(14)                    189.3594           60.5553
  2295   122.0011    199(14)                    192.2947           60.6516
  2296   122.0511    190(14)                    195.6205           60.7483
  2297   122.1011    193(14)                    199.2521           60.8451
  2298   122.1511    186(14)                    203.0354           60.9421
  2299   122.2010    196(14)                    206.7025           61.0393
  2300   122.2511    209(14)                    209.9106           61.1367
  2301   122.3011    206(14)                    212.2867           61.2343
  2302   122.3511    214(15)                    213.4927           61.3321
  2303   122.4011    198(14)                    213.2785           61.4300
  2304   122.4510    211(15)                    211.5056           61.5281
  2305   122.5011    200(14)                    208.1551           61.6264
  2306   122.5511    196(14)                    203.3408           61.7249
  2307   122.6011    191(14)                    197.3148           61.8235
  2308   122.6511    182(13)                    190.4875           61.9224
  2309   122.7010    174(13)                    183.3776           62.0214
  2310   122.7511    178(13)                    176.5663           62.1206
  2311   122.8011    168(13)                    170.6193           62.2199
  2312   122.8511    158(13)                    165.9978           62.3193
  2313   122.9011    185(14)                    162.9856           62.4189
  2314   122.9510    167(13)                    161.6485           62.5186
  2315   123.0011    163(13)                    161.8193           62.6185
  2316   123.0511    182(13)                    163.1114           62.7186
  2317   123.1011    177(13)                    164.9609           62.8188
  2318   123.1511    203(14)                    166.7194           62.9190
  2319   123.2010    199(14)                    167.7504           63.0195
  2320   123.2511    200(14)                    167.5682           63.1200
  2321   123.3011    204(14)                    165.9296           63.2206
  2322   123.3511    193(14)                    162.8313           63.3214
  2323   123.4011    198(14)                    158.4552           63.4224
  2324   123.4510    180(13)                    153.1006           63.5235
  2325   123.5011    168(13)                    147.1127           63.6246
  2326   123.5511    179(13)                    140.8567           63.7259
  2327   123.6011    140(12)                    134.6792           63.8272
  2328   123.6511    161(13)                    128.8660           63.9286
  2329   123.7010    152(12)                    123.6137           64.0299
  2330   123.7511    126(11)                    119.0140           64.1313
  2331   123.8011    115(11)                    115.0626           64.2326
  2332   123.8511    131(11)                    111.6976           64.3340
  2333   123.9011    131(11)                    108.8263           64.4354
  2334   123.9510    121(11)                    106.3637           64.5368
  2335   124.0011    131(11)                    104.2412           64.6382
  2336   124.0511    126(11)                    102.4136           64.7395
  2337   124.1011    112(11)                    100.8583           64.8409
  2338   124.1511    101(10)                     99.5766           64.9422
  2339   124.2010    119(11)                     98.6016           65.0436
  2340   124.2511    107(10)                     97.9948           65.1450
  2341   124.3011    83(9)                       97.8352           65.2464
  2342   124.3511    101(10)                     98.1943           65.3477
  2343   124.4011    93(10)                      99.1269           65.4492
  2344   124.4510    98(10)                     100.6328           65.5505
  2345   124.5011    89(9)                      102.6588           65.6519
  2346   124.5511    107(10)                    105.0890           65.7533
  2347   124.6011    109(10)                    107.7504           65.8546
  2348   124.6511    115(11)                    110.4203           65.9561
  2349   124.7010    94(10)                     112.8471           66.0574
  2350   124.7511    138(12)                    114.7785           66.1588
  2351   124.8011    117(11)                    115.9895           66.2602
  2352   124.8511    102(10)                    116.3195           66.3615
  2353   124.9011    123(11)                    115.7063           66.4630
  2354   124.9510    105(10)                    114.2105           66.5643
  2355   125.0011    105(10)                    112.0143           66.6657
  2356   125.0511    107(10)                    109.3945           66.7670
  2357   125.1011    99(10)                     106.6910           66.8684
  2358   125.1511    112(11)                    104.2458           66.9697
  2359   125.2010    96(10)                     102.3956           67.0711
  2360   125.2511    97(10)                     101.4397           67.1725
  2361   125.3011    95(10)                     101.6265           67.2739
  2362   125.3511    90(9)                      103.1388           67.3752
  2363   125.4011    98(10)                      67.4766           67.4766
_pd_proc_number_of_points   2308



_exptl_crystal_density_diffrn
7.137
_refine_ls_goodness_of_fit_all
0.9134
_chemical_formula_iupac
'Tl2 Be F4'
_cell_formula_units_Z
4
_chemical_formula_moiety
'Tl2, Be F4'
_cell_length_a
7.67735(10)
_cell_length_b
5.80377(8)
_cell_length_c
10.31316(13)
_diffrn_radiation_type
neutron
_symmetry_space_group_name_Hall
'-P 2ac 2n'
_computing_molecular_graphics
'Diamond (Brandenburg & Berndt, 1999)'
_chemical_formula_weight
493.77
_refine_ls_number_restraints
0
_computing_structure_refinement
'FULLPROF'
_refine_ls_weighting_scheme
sigma
_symmetry_space_group_name_H-M
'P n m a'
_cell_angle_gamma
90.00000
_cell_measurement_temperature
1.5
_computing_cell_refinement
'FULLPROF (Rodr\'iguez-Carvajal, 2005)'
_computing_publication_material
'FULLPROF'
_refine_ls_shift/su_max
0.01
_refine_ls_number_reflns
901
_diffrn_radiation_monochromator
'Ge 335'
_chemical_name_systematic
;
Thallium Fluoroberyllate
;
_cell_volume
459.530(10)
_symmetry_cell_setting
Orthorhombic
_diffrn_ambient_temperature
1.5
_refine_ls_R_factor_all
0.0357
_diffrn_radiation_wavelength
1.2251
_diffrn_measurement_device_type
'3T2 Line'
_cell_angle_alpha
90.00000
_refine_ls_number_parameters
35
_chemical_formula_sum
'Be F4 Tl2'
_cell_angle_beta
90.00000
loop_
_symmetry_equiv_pos_as_xyz
x,y,z
x+1/2,-y+1/2,-z+1/2
-x,y+1/2,-z
-x+1/2,-y,z+1/2
-x,-y,-z
-x+1/2,y+1/2,z+1/2
x,-y+1/2,z
x+1/2,y,-z+1/2

loop_
_atom_type_symbol
_atom_type_scat_source
TL 
;Sears (1992)
;
BE 
;Sears (1992)
;
F 
;Sears (1992)
;

loop_
_atom_site_label
_atom_site_fract_x
_atom_site_fract_y
_atom_site_fract_z
_atom_site_u_iso_or_equiv
_atom_site_adp_type
_atom_site_occupancy
_atom_site_type_symbol
Tl1 0.1668(3) 0.25000 0.0906(2) 0.0000(4) Uiso 1.00000 TL
Tl2 -0.0115(3) 0.25000 0.6930(2) 0.0018(4) Uiso 1.00000 TL
Be1 0.2385(3) 0.25000 0.4196(3) 0.0045(5) Uiso 1.00000 BE
F1 0.3140(4) 0.0284(5) 0.3536(3) 0.0080(6) Uiso 1.00000 F
F2 0.0361(4) 0.25000 0.4123(4) 0.0061(7) Uiso 1.00000 F
F3 0.2974(5) 0.25000 0.5636(3) 0.0042(7) Uiso 1.00000 F

loop_
_geom_bond_atom_site_label_1
_geom_bond_atom_site_label_2
_geom_bond_site_symmetry_2
_geom_bond_distance
_geom_bond_publ_flag
Be1 F1 1_555 1.566(3) no
Be1 F2 1_555 1.556(4) no
Be1 F3 1_555 1.552(4) no
Tl1 F1 1_555 3.208(4) no
Tl1 F1 2_455 3.053(4) no
Tl1 F1 4_554 2.934(3) no
Tl1 F1 6_554 2.934(3) no
Tl1 F1 7_555 3.208(4) no
Tl1 F1 8_455 3.053(4) no
Tl1 F2 1_555 3.466(5) no
Tl1 F2 2_555 2.835(4) no
Tl1 F3 2_455 3.251(4) no
Tl1 F3 4_554 2.9281(5) no
Tl1 F3 4_564 2.9281(5) no
Tl2 F1 3_556 2.870(4) no
Tl2 F1 4_555 2.766(4) no
Tl2 F1 5_556 2.870(4) no
Tl2 F1 6_555 2.766(4) no
Tl2 F2 1_555 2.918(5) no
Tl2 F2 3_546 3.1042(16) no
Tl2 F2 3_556 3.1042(16) no
Tl2 F3 1_555 2.721(4) no
Tl2 F3 2_456 2.908(4) no

loop_
_geom_contact_atom_site_label_1
_geom_contact_atom_site_label_2
_geom_contact_distance
_geom_contact_site_symmetry_1
_geom_contact_site_symmetry_2
_geom_contact_publ_flag
? ? ? ? ? ?

loop_
_geom_angle_atom_site_label_1
_geom_angle_atom_site_label_2
_geom_angle_atom_site_label_3
_geom_angle_site_symmetry_1
_geom_angle_site_symmetry_2
_geom_angle_site_symmetry_3
_geom_angle
_geom_angle_publ_flag
F1 Be1 F1 1_555 1_555 7_555 110.39(15) no
F1 Be1 F2 1_555 1_555 1_555 110.40(11) no
F1 Be1 F3 1_555 1_555 1_555 107.93(11) no
F2 Be1 F3 1_555 1_555 1_555 109.7(3) no



# powder data simulated using PLATON:

data_I_1.5K_simulated_1.2251

_publcif_pd_cifplot 'simulated 2021-03-25'

