data_Co35LH

_pd_block_id    cies67554-63
#==============================================
# 9. INSTRUMENT CHARACTERIZATION

_exptl_special_details
; ?
;

# if regions of the data are excluded, the reason(s) are supplied here:
_pd_proc_info_excluded_regions
; ?
;

# The following item is used to identify the equipment used to record
# the powder pattern when the diffractogram was measured at a laboratory
# other than the authors' home institution, e.g. when neutron or synchrotron
# radiation is used.

_pd_instr_location
; ?
;
_pd_calibration_special_details           # description of the method used
                                          # to calibrate the instrument
; ?
;

_diffrn_ambient_temperature       ?
_diffrn_source                    ?
_diffrn_source_target             ?
_diffrn_source_type               ?
_diffrn_measurement_device_type   ?
_diffrn_detector                  ?
_diffrn_detector_type             ?       # make or model of detector

_pd_meas_scan_method              ?       # options are 'step', 'cont',
                                          # 'tof', 'fixed' or
                                          # 'disp' (= dispersive)
_pd_meas_special_details
;  ?
;

# The following two items identify the program(s) used (if appropriate).
_computing_data_collection        ?
_computing_data_reduction         ?

# Describe any processing performed on the data, prior to refinement.
# For example: a manual Lp correction or a precomputed absorption correction
_pd_proc_info_data_reduction      ?

# The following item is used for angular dispersive measurements only.

_diffrn_radiation_monochromator   ?

# The following items are used to define the size of the instrument.
# Not all distances are appropriate for all instrument types.

_pd_instr_dist_src/mono           ?
_pd_instr_dist_mono/spec          ?
_pd_instr_dist_src/spec           ?
_pd_instr_dist_spec/anal          ?
_pd_instr_dist_anal/detc          ?
_pd_instr_dist_spec/detc          ?

# 10. Specimen size and mounting information

# The next three fields give the specimen dimensions in mm.  The equatorial
# plane contains the incident and diffracted beam.

_pd_spec_size_axial               ?       # perpendicular to
                                          # equatorial plane

_pd_spec_size_equat               ?       # parallel to
                                          # scattering vector
                                          # in transmission

_pd_spec_size_thick               ?       # parallel to
                                          # scattering vector
                                          # in reflection

_pd_spec_mounting                         # This field should be
                                          # used to give details of the
                                          # container.
; ?
;

_pd_spec_mount_mode               ?       # options are 'reflection'
                                          # or 'transmission'

_pd_spec_shape                    ?       # options are 'cylinder'
                                          # 'flat_sheet' or 'irregular'


_diffrn_radiation_probe                neutrons
_diffrn_radiation_wavelength            1.5940

#  The following profile R-factors are NOT CORRECTED for background
#  The sum is extended to all non-excluded points.
#  These are the current CIF standard

_pd_proc_ls_prof_R_factor                1.6236
_pd_proc_ls_prof_wR_factor               2.0932
_pd_proc_ls_prof_wR_expected             1.4587

#  The following profile R-factors are CORRECTED for background
#  The sum is extended to all non-excluded points.
#  These items are not in the current CIF standard, but are defined above

_pd_proc_ls_prof_cR_factor                9.5442
_pd_proc_ls_prof_cwR_factor               7.7615
_pd_proc_ls_prof_cwR_expected             5.4086

#  The following items are not in the CIF standard, but are defined above

_pd_proc_ls_prof_chi2                 2.0593
_pd_proc_ls_prof_echi2                2.0593

_pd_proc_ls_background_function
;   FullProf Background function number
;

_exptl_absorpt_process_details
;   FullProf Absorption/surface roughness correction
 No correction is applied ?.
;

_pd_proc_ls_profile_function
;
;
_pd_proc_ls_peak_cutoff 0.00500
_pd_calc_method  "   Rietveld Refinement"

#---- raw/calc data loop -----
_pd_meas_2theta_range_min       0.100000
_pd_meas_2theta_range_max     159.899994
_pd_meas_2theta_range_inc       0.050016
_pd_proc_2theta_range_min       0.347594
_pd_proc_2theta_range_max     160.147583
_pd_proc_2theta_range_inc       0.050016

loop_
_pd_proc_point_id
_pd_proc_2theta_corrected
_pd_proc_intensity_total
_pd_calc_intensity_total
_pd_proc_intensity_bkg_calc

   600    30.2976    632(10)           626.3235          622.1506
   601    30.3476    629(10)           625.3240          622.1256
   602    30.3976    626(10)           624.4823          622.1010
   603    30.4476    635(10)           623.8267          622.0767
   604    30.4976    627(10)           623.3492          622.0528
   605    30.5476    629(10)           623.0193          622.0292
   606    30.5976    637(10)           622.7983          622.0061
   607    30.6476    628(10)           622.6508          621.9833
   608    30.6976    608(10)           622.5506          621.9609
   609    30.7476    631(10)           622.4810          621.9388
   610    30.7976    625(10)           622.4340          621.9171
   611    30.8476    624(10)           622.4084          621.8957
   612    30.8976    629(10)           622.4092          621.8747
   613    30.9476    619(10)           622.4485          621.8541
   614    30.9976    622(10)           622.5480          621.8338
   615    31.0476    629(10)           622.7416          621.8138
   616    31.0976    607(10)           623.1600          621.7943
   617    31.1476    613(10)           623.6971          621.7751
   618    31.1976    623(10)           624.4867          621.7562
   619    31.2476    625(10)           625.5551          621.7377
   620    31.2976    617(10)           626.8712          621.7195
   621    31.3476    619(10)           628.3181          621.7017
   622    31.3976    632(10)           629.6754          621.6843
   623    31.4476    625(10)           630.6403          621.6671
   624    31.4976    631(10)           630.9441          621.6503
   625    31.5476    612(10)           630.5236          621.6339
   626    31.5976    617(10)           629.5492          621.6178
   627    31.6476    614(10)           628.2795          621.6021
   628    31.6976    633(10)           626.9400          621.5867
   629    31.7476    629(10)           625.6914          621.5716
   630    31.7976    622(10)           624.6317          621.5568
   631    31.8476    644(10)           623.8020          621.5424
   632    31.8976    635(10)           623.1969          621.5284
   633    31.9476    623(10)           622.7800          621.5146
   634    31.9976    617(10)           622.5033          621.5012
   635    32.0476    625(10)           622.3215          621.4882
   636    32.0976    615(10)           622.2000          621.4754
   637    32.1476    616(10)           622.1159          621.4630
   638    32.1976    622(10)           622.0555          621.4509
   639    32.2476    623(10)           622.0114          621.4392
   640    32.2976    632(10)           621.9794          621.4277
   641    32.3476    630(10)           621.9574          621.4167
   642    32.3976    624(10)           621.9437          621.4059
   643    32.4476    628(10)           621.9375          621.3954
   644    32.4976    618(10)           621.9379          621.3853
   645    32.5476    624(10)           621.9446          621.3755
   646    32.5976    627(10)           621.9572          621.3660
   647    32.6476    633(10)           621.9753          621.3568
   648    32.6976    636(10)           621.9989          621.3480
   649    32.7476    632(10)           622.0098          621.3394
   650    32.7976    610(10)           622.0446          621.3312
   651    32.8476    612(10)           622.0850          621.3233
   652    32.8976    635(10)           622.1325          621.3157
   653    32.9476    625(10)           622.1905          621.3084
   654    32.9976    626(10)           622.2661          621.3014
   655    33.0476    626(10)           622.3734          621.2947
   656    33.0976    631(10)           622.5388          621.2884
   657    33.1476    628(10)           622.8085          621.2823
   658    33.1976    614(10)           623.2587          621.2766
   659    33.2476    620(10)           624.0073          621.2711
   660    33.2976    624(10)           625.2216          621.2660
   661    33.3476    626(10)           627.1087          621.2611
   662    33.3976    629(10)           629.8755          621.2566
   663    33.4476    627(10)           633.6476          621.2524
   664    33.4976    623(10)           638.3610          621.2484
   665    33.5476    631(10)           643.6531          621.2448
   666    33.5976    640(10)           648.7842          621.2415
   667    33.6476    637(10)           652.6724          621.2384
   668    33.6976    641(10)           654.2499          621.2357
   669    33.7476    643(10)           653.1241          621.2332
   670    33.7976    653(10)           649.8208          621.2310
   671    33.8476    652(10)           645.2974          621.2291
   672    33.8976    645(10)           640.4282          621.2275
   673    33.9476    622(10)           635.8439          621.2263
   674    33.9976    625(10)           631.9314          621.2252
   675    34.0476    628(10)           628.8679          621.2245
   676    34.0976    614(10)           626.6285          621.2241
   677    34.1476    621(10)           625.0684          621.2239
   678    34.1976    623(10)           624.0541          621.2241
   679    34.2476    632(10)           623.3925          621.2245
   680    34.2976    617(10)           622.9521          621.2252
   681    34.3476    616(10)           622.6455          621.2262
   682    34.3976    625(10)           622.4205          621.2275
   683    34.4476    626(10)           622.2482          621.2290
   684    34.4976    627(10)           622.1125          621.2308
   685    34.5476    619(10)           622.0040          621.2329
   686    34.5976    628(10)           621.9166          621.2353
   687    34.6476    629(10)           621.8455          621.2379
   688    34.6976    633(10)           621.7876          621.2408
   689    34.7476    612(10)           621.7400          621.2440
   690    34.7976    610(10)           621.7006          621.2475
   691    34.8476    603(10)           621.6677          621.2512
   692    34.8976    616(10)           621.6402          621.2552
   693    34.9476    629(10)           621.6171          621.2595
   694    34.9976    627(10)           621.5975          621.2640
   695    35.0476    622(10)           621.5812          621.2689
   696    35.0976    622(10)           621.5676          621.2739
   697    35.1476    612(10)           621.5563          621.2792
   698    35.1976    622(10)           621.5472          621.2849
   699    35.2476    608(10)           621.5401          621.2907
   700    35.2976    625(10)           621.5347          621.2968
   701    35.3476    638(10)           621.5310          621.3032
   702    35.3976    628(10)           621.5288          621.3099
   703    35.4476    630(10)           621.5280          621.3168
   704    35.4976    633(10)           621.5286          621.3239
   705    35.5476    623(10)           621.5306          621.3314
   706    35.5976    629(10)           621.5337          621.3390
   707    35.6476    633(10)           621.6238          621.3469
   708    35.6976    630(10)           621.6329          621.3551
   709    35.7476    621(10)           621.6433          621.3635
   710    35.7976    611(10)           621.6552          621.3722
   711    35.8476    614(10)           621.6688          621.3811
   712    35.8976    621(10)           621.6846          621.3903
   713    35.9476    610(10)           621.7035          621.3997
   714    35.9976    617(10)           621.7847          621.4094
   715    36.0476    620(10)           621.8197          621.4193
   716    36.0976    610(10)           621.8696          621.4295
   717    36.1476    623(10)           621.9436          621.4399
   718    36.1976    623(10)           622.0557          621.4506
   719    36.2476    608(10)           622.2233          621.4614
   720    36.2976    618(10)           622.3842          621.4726
   721    36.3476    622(10)           622.7169          621.4839
   722    36.3976    620(10)           623.1361          621.4956
   723    36.4476    629(10)           623.6156          621.5074
   724    36.4976    616(10)           624.0972          621.5195
   725    36.5476    619(10)           624.4895          621.5319
   726    36.5976    631(10)           624.6937          621.5444
   727    36.6476    627(10)           624.6608          621.5572
   728    36.6976    619(10)           624.4269          621.5703
   729    36.7476    634(10)           624.0764          621.5835
   730    36.7976    620(10)           623.6906          621.5970
   731    36.8476    612(10)           623.3290          621.6107
   732    36.8976    625(10)           623.0284          621.6247
   733    36.9476    629(10)           622.8056          621.6389
   734    36.9976    625(10)           622.6607          621.6533
   735    37.0476    615(10)           622.5827          621.6679
   736    37.0976    627(10)           622.5563          621.6828
   737    37.1476    626(10)           623.0527          621.6979
   738    37.1976    622(10)           623.1080          621.7132
   739    37.2476    623(10)           623.1824          621.7288
   740    37.2976    622(10)           623.2722          621.7445
   741    37.3476    625(10)           623.3759          621.7605
   742    37.3976    623(10)           623.4945          621.7767
   743    37.4476    620(10)           623.6318          621.7931
   744    37.4976    631(10)           623.7964          621.8098
   745    37.5476    619(10)           624.0055          621.8266
   746    37.5976    626(10)           624.2911          621.8437
   747    37.6476    625(10)           624.7097          621.8610
   748    37.6976    620(10)           625.3538          621.8785
   749    37.7476    633(10)           626.3647          621.8962
   750    37.7976    634(10)           627.9365          621.9141
   751    37.8476    625(10)           630.2979          621.9323
   752    37.8976    626(10)           633.6574          621.9506
   753    37.9476    630(10)           638.1058          621.9692
   754    37.9976    639(10)           643.5028          621.9880
   755    38.0476    652(10)           649.3720          622.0070
   756    38.0976    652(10)           654.8508          622.0261
   757    38.1476    645(10)           658.8332          622.0455
   758    38.1976    649(10)           660.5316          622.0651
   759    38.2476    654(10)           660.1195          622.0849
   760    38.2976    646(10)           658.5733          622.1049
   761    38.3476    643(10)           656.9272          622.1251
   762    38.3976    630(10)           655.7910          622.1456
   763    38.4476    638(10)           655.2198          622.1662
   764    38.4976    647(10)           654.7407          622.1870
   765    38.5476    647(10)           653.6063          622.2080
   766    38.5976    653(10)           651.3430          622.2292
   767    38.6476    655(10)           648.0975          622.2507
   768    38.6976    639(10)           644.3849          622.2723
   769    38.7476    640(10)           640.7117          622.2941
   770    38.7976    640(10)           637.4448          622.3160
   771    38.8476    624(10)           634.8061          622.3383
   772    38.8976    629(10)           632.8842          622.3607
   773    38.9476    631(10)           631.6614          622.3832
   774    38.9976    632(10)           631.0631          622.4060
   775    39.0476    634(10)           631.8328          622.4290
   776    39.0976    648(10)           632.4109          622.4521
   777    39.1476    640(10)           633.7427          622.4755
   778    39.1976    652(10)           636.2094          622.4990
   779    39.2476    666(10)           640.5001          622.5227
   780    39.2976    651(10)           647.6078          622.5466
   781    39.3476    653(10)           658.8004          622.5707
   782    39.3976    688(11)           675.3606          622.5950
   783    39.4476    700(11)           698.0760          622.6194
   784    39.4976    731(11)           726.5543          622.6440
   785    39.5476    755(11)           758.5145          622.6688
   786    39.5976    778(11)           789.2726          622.6938
   787    39.6476    801(12)           811.9623          622.7191
   788    39.6976    804(12)           819.9338          622.7444
   789    39.7476    813(12)           811.1383          622.7700
   790    39.7976    781(11)           789.4380          622.7957
   791    39.8476    750(11)           761.1151          622.8215
   792    39.8976    722(11)           731.6121          622.8476
   793    39.9476    703(11)           704.6662          622.8738
   794    39.9976    691(11)           682.3873          622.9003
   795    40.0476    682(10)           665.4857          622.9269
   796    40.0976    678(10)           653.5967          622.9536
   797    40.1476    662(10)           645.7327          622.9806
   798    40.1976    660(8)           623.0077          623.0077
   824    41.4976    977(12)           933.9966          623.7700
   825    41.5476    964(12)           938.3034          623.8013
   826    41.5976    937(12)           915.6019          623.8329
   827    41.6476    925(12)           873.8595          623.8646
   828    41.6976    861(12)           824.2715          623.8965
   829    41.7476    820(11)           775.8038          623.9285
   830    41.7976    766(11)           733.9249          623.9607
   831    41.8476    730(11)           705.7629          623.9930
   832    41.8976    689(11)           682.1163          624.0255
   833    41.9476    674(11)           666.1789          624.0580
   834    41.9976    661(10)           656.0162          624.0908
   835    42.0476    672(10)           649.7638          624.1237
   836    42.0976    649(10)           645.9568          624.1567
   837    42.1476    657(10)           643.5999          624.1898
   838    42.1976    652(10)           642.0897          624.2231
   839    42.2476    649(10)           640.6182          624.2565
   840    42.2976    648(10)           639.9770          624.2901
   841    42.3476    655(10)           639.5922          624.3239
   842    42.3976    650(10)           639.4347          624.3577
   843    42.4476    648(10)           639.5120          624.3917
   844    42.4976    645(10)           639.8610          624.4258
   845    42.5476    648(10)           640.5433          624.4600
   846    42.5976    647(10)           641.6318          624.4944
   847    42.6476    655(10)           643.1845          624.5289
   848    42.6976    658(10)           645.2106          624.5636
   849    42.7476    653(10)           647.6323          624.5984
   850    42.7976    671(10)           650.2521          624.6333
   851    42.8476    674(10)           652.7308          624.6683
   852    42.8976    673(10)           654.6221          624.7035
   853    42.9476    662(10)           655.5685          624.7388
   854    42.9976    676(10)           655.5861          624.7742
   855    43.0476    672(10)           655.0631          624.8098
   856    43.0976    662(10)           654.4758          624.8455
   857    43.1476    664(10)           654.1952          624.8813
   858    43.1976    669(10)           656.6720          624.9172
   859    43.2476    665(10)           657.6885          624.9532
   860    43.2976    652(10)           659.4216          624.9894
   861    43.3476    667(10)           661.8893          625.0258
   862    43.3976    684(10)           665.1273          625.0622
   863    43.4476    681(11)           669.2323          625.0987
   864    43.4976    678(11)           674.4046          625.1354
   865    43.5476    673(11)           680.9888          625.1722
   866    43.5976    693(11)           689.5292          625.2090
   867    43.6476    688(11)           700.8675          625.2461
   868    43.6976    708(11)           716.3286          625.2833
   869    43.7476    736(11)           738.0871          625.3205
   870    43.7976    773(11)           769.7375          625.3578
   871    43.8476    834(12)           816.9614          625.3954
   872    43.8976    906(12)           887.9113          625.4330
   873    43.9476    1014(13)           992.7529          625.4707
   874    43.9976    1180(14)          1142.0748          625.5085
   875    44.0476    1371(15)          1343.4873          625.5464
   876    44.0976    1590(16)          1595.2415          625.5845
   877    44.1476    1825(18)          1882.9076          625.6227
   878    44.1976    2084(19)          2169.5530          625.6609
   879    44.2476    2297(20)          2397.2075          625.6993
   880    44.2976    2414(20)          2498.1714          625.7379
   881    44.3476    2409(20)          2433.8359          625.7765
   882    44.3976    2291(19)          2227.7495          625.8152
   883    44.4476    2030(18)          1944.5436          625.8540
   884    44.4976    1688(17)          1647.1213          625.8929
   885    44.5476    1376(15)          1380.3058          625.9319
   886    44.5976    1149(14)          1161.8628          625.9711
   887    44.6476    1000(13)           999.5139          626.0104
   888    44.6976    877(12)           887.7903          626.0497
   889    44.7476    793(12)           815.6664          626.0892
   890    44.7976    747(11)           771.2737          626.1287
   891    44.8476    721(11)           744.6967          626.1684
   892    44.8976    719(11)           728.9448          626.2081
   893    44.9476    698(11)           719.7378          626.2480
   894    44.9976    703(11)           714.8307          626.2880
   895    45.0476    690(11)           713.4185          626.3280
   896    45.0976    703(11)           715.8318          626.3682
   897    45.1476    710(11)           723.5560          626.4084
   898    45.1976    749(11)           739.4354          626.4488
   899    45.2476    770(11)           767.8072          626.4893
   900    45.2976    827(12)           814.1685          626.5298
   901    45.3476    899(12)           884.0165          626.5704
   902    45.3976    983(13)           980.7528          626.6111
   903    45.4476    1096(14)          1102.9246          626.6520
   904    45.4976    1200(14)          1241.7338          626.6929
   905    45.5476    1298(15)          1378.6221          626.7339
   906    45.5976    1423(16)          1484.7563          626.7750
   907    45.6476    1489(16)          1527.6497          626.8163
   908    45.6976    1483(16)          1490.7483          626.8575
   909    45.7476    1400(15)          1388.0131          626.8989
   910    45.7976    1269(14)          1251.4126          626.9404
   911    45.8476    1085(14)          1114.5542          626.9819
   912    45.8976    955(13)           989.1080          627.0236
   913    45.9476    872(12)           888.5759          627.0654
   914    45.9976    810(12)           814.9104          627.1072
   915    46.0476    755(11)           765.0098          627.1491
   916    46.0976    731(11)           733.4258          627.1911
   917    46.1476    704(11)           714.5382          627.2332
   918    46.1976    705(11)           703.8021          627.2753
   919    46.2476    694(11)           698.1152          627.3176
   920    46.2976    683(11)           695.6801          627.3599
   921    46.3476    691(11)           695.7071          627.4023
   922    46.3976    706(11)           698.2143          627.4448
   923    46.4476    727(11)           704.0358          627.4874
   924    46.4976    742(11)           714.9442          627.5301
   925    46.5476    762(11)           734.3316          627.5728
   926    46.5976    802(11)           766.7659          627.6157
   927    46.6476    844(12)           817.9535          627.6586
   928    46.6976    913(12)           893.2937          627.7015
   929    46.7476    1011(13)           995.6233          627.7446
   930    46.7976    1117(14)          1123.8743          627.7877
   931    46.8476    1245(14)          1264.7911          627.8309
   932    46.8976    1376(15)          1399.1931          627.8743
   933    46.9476    1466(16)          1496.1581          627.9176
   934    46.9976    1498(16)          1524.3168          627.9611
   935    47.0476    1484(16)          1472.9656          628.0046
   936    47.0976    1379(15)          1361.8849          628.0482
   937    47.1476    1236(14)          1224.1915          628.0918
   938    47.1976    1093(13)          1087.7378          628.1356
   939    47.2476    973(13)           969.7513          628.1794
   940    47.2976    900(12)           877.9435          628.2233
   941    47.3476    848(12)           812.8336          628.2672
   942    47.3976    821(11)           770.5038          628.3112
   943    47.4476    794(11)           745.3111          628.3553
   944    47.4976    769(11)           731.8748          628.3995
   945    47.5476    744(11)           726.1275          628.4437
   946    47.5976    745(11)           725.5671          628.4880
   947    47.6476    751(11)           729.1475          628.5323
   948    47.6976    750(11)           737.1926          628.5768
   949    47.7476    775(11)           751.5797          628.6213
   950    47.7976    799(11)           776.2179          628.6658
   951    47.8476    841(12)           817.6038          628.7104
   952    47.8976    895(12)           884.9313          628.7551
   953    47.9476    1019(13)           988.9803          628.7999
   954    47.9976    1165(14)          1139.2710          628.8447
   955    48.0476    1342(15)          1342.1870          628.8896
   956    48.0976    1586(16)          1584.9657          628.9346
   957    48.1476    1822(17)          1844.6814          628.9796
   958    48.1976    2051(19)          2082.7275          629.0246
   959    48.2476    2192(19)          2237.0774          629.0698
   960    48.2976    2237(19)          2254.7283          629.1149
   961    48.3476    2116(19)          2130.0808          629.1602
   962    48.3976    1895(18)          1910.2903          629.2055
   963    48.4476    1616(17)          1656.9132          629.2509
   964    48.4976    1364(15)          1417.0244          629.2963
   965    48.5476    1159(14)          1218.1460          629.3417
   966    48.5976    1019(13)          1071.5746          629.3873
   967    48.6476    945(13)           977.5681          629.4329
   968    48.6976    906(12)           931.4917          629.4785
   969    48.7476    912(12)           929.6469          629.5242
   970    48.7976    974(13)           973.3881          629.5700
   971    48.8476    1090(13)          1070.2683          629.6158
   972    48.8976    1241(14)          1231.6880          629.6617
   973    48.9476    1487(16)          1467.0498          629.7076
   974    48.9976    1790(17)          1775.7639          629.7536
   975    49.0476    2122(19)          2138.8657          629.7996
   976    49.0976    2492(20)          2511.9678          629.8457
   977    49.1476    2791(22)          2821.3967          629.8918
   978    49.1976    2933(22)          2975.9656          629.9380
   979    49.2476    2939(22)          2916.0581          629.9842
   980    49.2976    2711(21)          2664.8896          630.0305
   981    49.3476    2320(20)          2306.7603          630.0768
   982    49.3976    1889(18)          1926.8341          630.1232
   983    49.4476    1507(16)          1583.0886          630.1696
   984    49.4976    1226(15)          1303.1165          630.2161
   985    49.5476    1034(13)          1098.4404          630.2626
   986    49.5976    920(13)           959.8610          630.3091
   987    49.6476    846(12)           871.2406          630.3558
   988    49.6976    784(12)           817.5501          630.4024
   989    49.7476    758(11)           786.0331          630.4491
   990    49.7976    730(11)           768.0359          630.4958
   991    49.8476    716(11)           758.6552          630.5426
   992    49.8976    721(11)           755.9438          630.5895
   993    49.9476    718(11)           760.3407          630.6363
   994    49.9976    756(11)           774.5078          630.6832
   995    50.0476    797(12)           803.3419          630.7302
   996    50.0976    838(12)           853.6326          630.7772
   997    50.1476    904(12)           932.7607          630.8242
   998    50.1976    1038(13)          1046.0656          630.8713
   999    50.2476    1193(14)          1193.2788          630.9184
  1000    50.2976    1356(15)          1364.7654          630.9656
  1001    50.3476    1511(16)          1538.3478          631.0128
  1002    50.3976    1642(17)          1677.8232          631.0600
  1003    50.4476    1748(17)          1740.0054          631.1072
  1004    50.4976    1706(17)          1699.9285          631.1545
  1005    50.5476    1584(16)          1572.9353          631.2019
  1006    50.5976    1395(15)          1400.4956          631.2493
  1007    50.6476    1212(14)          1221.8688          631.2967
  1008    50.6976    1042(13)          1062.8286          631.3442
  1009    50.7476    896(12)           932.0304          631.3917
  1010    50.7976    819(12)           839.5878          631.4391
  1011    50.8476    756(11)           777.0920          631.4867
  1012    50.8976    717(11)           737.2162          631.5343
  1013    50.9476    697(11)           712.6014          631.5819
  1014    50.9976    688(11)           697.4012          631.6296
  1015    51.0476    685(11)           687.6712          631.6772
  1016    51.0976    667(11)           681.0578          631.7250
  1017    51.1476    663(11)           676.2816          631.7727
  1018    51.1976    651(11)           672.6896          631.8205
  1019    51.2476    639(11)           669.9578          631.8683
  1020    51.2976    653(11)           667.9344          631.9161
  1021    51.3476    666(11)           666.5750          631.9640
  1022    51.3976    656(10)           665.9427          632.0119
  1023    51.4476    655(11)           666.2607          632.0598
  1024    51.4976    662(11)           668.0099          632.1077
  1025    51.5476    676(11)           672.0551          632.1557
  1026    51.5976    689(11)           679.7330          632.2037
  1027    51.6476    690(11)           687.0762          632.2518
  1028    51.6976    708(11)           707.5515          632.2998
  1029    51.7476    736(11)           736.4022          632.3479
  1030    51.7976    772(11)           773.2996          632.3960
  1031    51.8476    809(12)           815.4706          632.4442
  1032    51.8976    847(12)           856.9415          632.4923
  1033    51.9476    879(12)           888.3207          632.5405
  1034    51.9976    902(12)           899.9944          632.5887
  1035    52.0476    883(12)           885.9305          632.6369
  1036    52.0976    858(12)           852.3391          632.6851
  1037    52.1476    799(12)           809.7328          632.7334
  1038    52.1976    769(11)           767.1837          632.7817
  1039    52.2476    727(11)           730.3011          632.8300
  1040    52.2976    701(11)           701.5634          632.8783
  1041    52.3476    687(11)           681.0999          632.9267
  1042    52.3976    671(11)           667.6218          632.9750
  1043    52.4476    661(10)           659.3292          633.0234
  1044    52.4976    639(10)           654.5540          633.0718
  1045    52.5476    645(10)           652.0682          633.1202
  1046    52.5976    661(10)           651.0984          633.1687
  1047    52.6476    648(10)           651.1883          633.2172
  1048    52.6976    641(10)           652.0232          633.2656
  1049    52.7476    659(10)           653.2839          633.3141
  1050    52.7976    649(10)           654.5490          633.3627
  1051    52.8476    659(10)           655.2761          633.4112
  1052    52.8976    653(10)           652.3505          633.4597
  1053    52.9476    663(10)           651.0587          633.5083
  1054    52.9976    647(10)           649.0463          633.5568
  1055    53.0476    637(10)           646.8246          633.6054
  1056    53.0976    630(10)           644.7790          633.6541
  1057    53.1476    632(10)           643.1680          633.7026
  1058    53.1976    647(10)           641.9821          633.7513
  1059    53.2476    634(10)           641.2379          633.7999
  1060    53.2976    631(10)           640.8581          633.8486
  1061    53.3476    630(10)           640.7547          633.8972
  1062    53.3976    631(10)           640.8547          633.9459
  1063    53.4476    621(10)           641.1105          633.9946
  1064    53.4976    628(10)           641.4994          634.0433
  1065    53.5476    629(10)           642.0184          634.0920
  1066    53.5976    638(10)           642.6808          634.1407
  1067    53.6476    639(10)           643.5176          634.1894
  1068    53.6976    623(10)           644.5865          634.2381
  1069    53.7476    632(10)           645.9997          634.2869
  1070    53.7976    642(10)           647.9796          634.3356
  1071    53.8476    645(10)           650.9594          634.3843
  1072    53.8976    650(10)           655.7289          634.4331
  1073    53.9476    664(10)           663.5862          634.4819
  1074    53.9976    677(11)           676.3967          634.5306
  1075    54.0476    697(11)           696.3930          634.5794
  1076    54.0976    723(11)           725.5793          634.6282
  1077    54.1476    773(11)           764.7485          634.6770
  1078    54.1976    814(12)           812.3137          634.7258
  1079    54.2476    859(12)           863.2684          634.7746
  1080    54.2976    905(12)           908.4244          634.8234
  1081    54.3476    943(12)           935.2264          634.8722
  1082    54.3976    942(12)           932.8775          634.9210
  1083    54.4476    919(12)           903.4235          634.9698
  1084    54.4976    848(12)           857.0939          635.0186
  1085    54.5476    795(12)           806.2303          635.0674
  1086    54.5976    748(11)           759.5307          635.1163
  1087    54.6476    704(11)           721.5636          635.1651
  1088    54.6976    676(11)           693.5886          635.2139
  1089    54.7476    661(11)           674.6169          635.2628
  1090    54.7976    638(10)           662.5764          635.3115
  1091    54.8476    639(10)           655.2577          635.3604
  1092    54.8976    638(10)           650.8627          635.4092
  1093    54.9476    640(10)           648.1711          635.4580
  1094    54.9976    650(10)           646.4685          635.5068
  1095    55.0476    643(10)           645.4011          635.5557
  1096    55.0976    647(10)           644.8419          635.6044
  1097    55.1476    635(10)           644.7982          635.6533
  1098    55.1976    634(10)           645.3436          635.7021
  1099    55.2476    643(10)           646.5526          635.7509
  1100    55.2976    647(10)           648.3986          635.7997
  1101    55.3476    645(10)           650.8038          635.8484
  1102    55.3976    639(10)           653.3895          635.8973
  1103    55.4476    650(10)           655.5631          635.9460
  1104    55.4976    653(10)           656.7120          635.9948
  1105    55.5476    644(10)           656.0568          636.0436
  1106    55.5976    653(10)           653.9139          636.0924
  1107    55.6476    646(10)           650.9736          636.1412
  1108    55.6976    652(10)           647.9210          636.1899
  1109    55.7476    642(10)           645.2065          636.2386
  1110    55.7976    635(10)           643.0472          636.2874
  1111    55.8476    629(10)           641.4786          636.3361
  1112    55.8976    640(10)           640.4211          636.3849
  1113    55.9476    644(10)           639.7460          636.4336
  1114    55.9976    649(10)           639.3267          636.4823
  1115    56.0476    653(10)           639.0646          636.5310
  1116    56.0976    645(10)           638.8949          636.5797
  1117    56.1476    652(10)           638.7795          636.6284
  1118    56.1976    640(10)           638.6980          636.6771
  1119    56.2476    646(10)           638.6399          636.7258
  1120    56.2976    635(10)           638.5995          636.7744
  1121    56.3476    648(10)           638.7860          636.8231
  1122    56.3976    641(10)           638.7825          636.8717
  1123    56.4476    644(10)           638.7910          636.9203
  1124    56.4976    637(10)           638.8107          636.9689
  1125    56.5476    644(10)           638.8411          637.0175
  1126    56.5976    628(10)           638.8837          637.0661
  1127    56.6476    630(10)           638.9355          637.1147
  1128    56.6976    639(10)           638.9982          637.1632
  1129    56.7476    643(10)           638.3241          637.2118
  1130    56.7976    639(10)           638.4416          637.2603
  1131    56.8476    630(10)           638.5713          637.3088
  1132    56.8976    638(10)           638.7155          637.3573
  1133    56.9476    634(10)           638.8766          637.4058
  1134    56.9976    639(10)           639.0582          637.4543
  1135    57.0476    641(10)           639.2653          637.5027
  1136    57.0976    638(10)           639.5052          637.5511
  1137    57.1476    650(10)           639.7905          637.5996
  1138    57.1976    639(10)           640.1443          637.6480
  1139    57.2476    652(10)           640.6126          637.6964
  1140    57.2976    646(10)           641.2847          637.7448
  1141    57.3476    644(10)           642.3224          637.7931
  1142    57.3976    654(10)           643.9891          637.8414
  1143    57.4476    661(10)           646.7650          637.8898
  1144    57.4976    645(10)           650.8610          637.9380
  1145    57.5476    656(10)           656.7341          637.9864
  1146    57.5976    662(10)           664.4570          638.0346
  1147    57.6476    671(11)           673.5989          638.0829
  1148    57.6976    671(11)           683.0253          638.1311
  1149    57.7476    695(11)           690.7922          638.1793
  1150    57.7976    702(11)           694.4967          638.2275
  1151    57.8476    682(11)           692.7070          638.2756
  1152    57.8976    677(11)           686.2568          638.3238
  1153    57.9476    670(11)           677.5745          638.3719
  1154    57.9976    667(11)           668.7877          638.4200
  1155    58.0476    666(10)           661.2995          638.4681
  1156    58.0976    647(10)           655.8149          638.5162
  1157    58.1476    634(10)           652.5630          638.5642
  1158    58.1976    647(10)           651.5670          638.6122
  1159    58.2476    651(10)           652.8899          638.6602
  1160    58.2976    656(10)           656.7616          638.7081
  1161    58.3476    657(10)           663.5115          638.7561
  1162    58.3976    662(11)           673.3101          638.8040
  1163    58.4476    682(11)           685.8008          638.8519
  1164    58.4976    682(11)           699.7435          638.8998
  1165    58.5476    677(11)           712.7328          638.9476
  1166    58.5976    686(11)           721.2640          638.9954
  1167    58.6476    712(11)           722.1096          639.0432
  1168    58.6976    706(11)           714.9131          639.0910
  1169    58.7476    682(11)           702.5383          639.1387
  1170    58.7976    680(11)           688.5789          639.1865
  1171    58.8476    677(11)           675.6342          639.2342
  1172    58.8976    658(10)           665.0676          639.2818
  1173    58.9476    640(10)           657.2753          639.3295
  1174    58.9976    635(10)           652.0056          639.3771
  1175    59.0476    637(10)           648.6984          639.4247
  1176    59.0976    649(10)           646.7536          639.4722
  1177    59.1476    641(10)           645.6937          639.5197
  1178    59.1976    652(10)           645.2227          639.5673
  1179    59.2476    633(10)           645.2231          639.6147
  1180    59.2976    645(10)           645.7380          639.6622
  1181    59.3476    649(10)           646.9517          639.7095
  1182    59.3976    644(10)           649.1569          639.7570
  1183    59.4476    654(10)           652.6747          639.8043
  1184    59.4976    654(10)           657.7154          639.8516
  1185    59.5476    655(10)           664.1920          639.8989
  1186    59.5976    685(11)           671.5375          639.9462
  1187    59.6476    682(11)           678.5573          639.9934
  1188    59.6976    692(11)           683.4260          640.0406
  1189    59.7476    695(11)           684.3251          640.0878
  1190    59.7976    686(11)           680.8401          640.1349
  1191    59.8476    696(11)           674.3744          640.1820
  1192    59.8976    684(11)           666.8882          640.2291
  1193    59.9476    660(10)           659.8420          640.2761
  1194    59.9976    660(10)           654.0433          640.3231
  1195    60.0476    646(10)           649.7518          640.3701
  1196    60.0976    656(10)           646.8462          640.4171
  1197    60.1476    661(10)           644.8801          640.4640
  1198    60.1976    650(10)           643.7844          640.5109
  1199    60.2476    660(10)           643.1360          640.5577
  1200    60.2976    649(10)           642.7425          640.6045
  1201    60.3476    653(10)           642.4893          640.6512
  1202    60.3976    659(10)           642.3154          640.6980
  1203    60.4476    644(10)           642.1900          640.7447
  1204    60.4976    655(10)           642.0977          640.7914
  1205    60.5476    645(10)           642.0308          640.8380
  1206    60.5976    649(10)           641.9854          640.8846
  1207    60.6476    643(10)           641.9609          640.9312
  1208    60.6976    641(10)           642.0095          640.9777
  1209    60.7476    633(10)           642.0391          641.0242
  1210    60.7976    641(10)           642.1048          641.0706
  1211    60.8476    628(10)           642.2138          641.1171
  1212    60.8976    635(10)           642.3685          641.1635
  1213    60.9476    646(10)           642.5615          641.2098
  1214    60.9976    641(10)           642.5752          641.2561
  1215    61.0476    637(10)           642.7703          641.3024
  1216    61.0976    647(10)           642.8904          641.3486
  1217    61.1476    632(10)           642.8983          641.3948
  1218    61.1976    629(10)           642.8048          641.4409
  1219    61.2476    631(10)           642.6566          641.4870
  1220    61.2976    631(10)           642.5049          641.5331
  1221    61.3476    648(10)           642.3789          641.5792
  1222    61.3976    644(10)           642.2932          641.6251
  1223    61.4476    651(10)           642.2499          641.6711
  1224    61.4976    639(10)           642.2433          641.7170
  1225    61.5476    634(10)           642.2655          641.7629
  1226    61.5976    651(10)           642.3102          641.8087
  1227    61.6476    649(10)           642.3751          641.8545
  1228    61.6976    641(10)           642.4646          641.9003
  1229    61.7476    629(10)           642.5909          641.9460
  1230    61.7976    639(10)           642.7755          641.9916
  1231    61.8476    639(10)           643.0475          642.0373
  1232    61.8976    659(10)           643.4374          642.0829
  1233    61.9476    643(10)           643.9638          642.1284
  1234    61.9976    640(10)           644.6168          642.1739
  1235    62.0476    633(10)           645.3545          642.2194
  1236    62.0976    640(10)           645.9348          642.2648
  1237    62.1476    662(10)           646.4139          642.3102
  1238    62.1976    636(10)           646.5322          642.3555
  1239    62.2476    634(10)           646.2794          642.4008
  1240    62.2976    640(10)           645.7990          642.4460
  1241    62.3476    649(10)           645.2686          642.4913
  1242    62.3976    663(10)           644.8210          642.5364
  1243    62.4476    646(10)           644.5408          642.5815
  1244    62.4976    653(10)           644.4849          642.6266
  1245    62.5476    645(10)           644.7119          642.6716
  1246    62.5976    644(10)           645.3091          642.7166
  1247    62.6476    660(10)           646.4033          642.7615
  1248    62.6976    663(10)           648.1350          642.8065
  1249    62.7476    658(10)           650.5949          642.8513
  1250    62.7976    659(10)           653.7316          642.8961
  1251    62.8476    666(10)           657.2590          642.9409
  1252    62.8976    675(10)           660.5831          642.9855
  1253    62.9476    666(10)           662.8107          643.0302
  1254    62.9976    680(10)           663.0995          643.0748
  1255    63.0476    674(10)           661.3483          643.1194
  1256    63.0976    674(10)           658.3003          643.1639
  1257    63.1476    671(10)           654.9478          643.2084
  1258    63.1976    656(10)           651.8112          643.2529
  1259    63.2476    661(10)           649.2858          643.2972
  1260    63.2976    655(10)           647.4498          643.3416
  1261    63.3476    654(10)           646.2242          643.3859
  1262    63.3976    655(10)           645.4617          643.4301
  1263    63.4476    667(10)           645.0087          643.4743
  1264    63.4976    648(10)           644.7515          643.5184
  1265    63.5476    656(10)           644.6083          643.5625
  1266    63.5976    646(10)           644.5328          643.6066
  1267    63.6476    661(10)           644.5001          643.6506
  1268    63.6976    661(10)           644.4982          643.6945
  1269    63.7476    644(10)           644.5231          643.7384
  1270    63.7976    664(10)           644.5785          643.7823
  1271    63.8476    666(10)           644.6769          643.8260
  1272    63.8976    670(10)           644.8431          643.8698
  1273    63.9476    663(10)           645.1197          643.9135
  1274    63.9976    660(10)           645.5375          643.9572
  1275    64.0476    665(10)           646.1400          644.0008
  1276    64.0976    677(10)           646.9346          644.0443
  1277    64.1476    668(10)           647.8885          644.0878
  1278    64.1976    667(10)           648.8499          644.1313
  1279    64.2476    672(10)           649.6207          644.1747
  1280    64.2976    667(10)           649.9506          644.2180
  1281    64.3476    666(10)           649.7191          644.2613
  1282    64.3976    651(10)           649.0558          644.3046
  1283    64.4476    641(10)           648.2134          644.3477
  1284    64.4976    659(10)           647.3921          644.3909
  1285    64.5476    649(10)           646.7327          644.4340
  1286    64.5976    657(10)           646.2724          644.4770
  1287    64.6476    634(10)           646.0043          644.5200
  1288    64.6976    647(10)           645.8948          644.5629
  1289    64.7476    642(10)           645.9073          644.6058
  1290    64.7976    653(10)           646.0205          644.6486
  1291    64.8476    656(10)           646.2411          644.6914
  1292    64.8976    651(10)           646.6171          644.7341
  1293    64.9476    644(10)           647.2516          644.7768
  1294    64.9976    646(10)           648.3129          644.8194
  1295    65.0476    649(10)           650.0205          644.8619
  1296    65.0976    656(10)           652.5903          644.9045
  1297    65.1476    666(10)           656.1326          644.9469
  1298    65.1976    654(10)           660.5222          644.9893
  1299    65.2476    669(10)           665.2719          645.0316
  1300    65.2976    663(11)           669.4036          645.0739
  1301    65.3476    673(11)           671.7318          645.1161
  1302    65.3976    676(11)           671.2432          645.1583
  1303    65.4476    671(11)           668.1847          645.2004
  1304    65.4976    668(10)           663.7569          645.2426
  1305    65.5476    668(10)           659.1548          645.2845
  1306    65.5976    667(10)           655.1455          645.3265
  1307    65.6476    665(10)           652.0723          645.3684
  1308    65.6976    639(10)           649.9678          645.4102
  1309    65.7476    665(10)           648.6807          645.4520
  1310    65.7976    657(10)           648.0041          645.4938
  1311    65.8476    650(10)           647.7601          645.5354
  1312    65.8976    633(10)           647.8333          645.5770
  1313    65.9476    641(10)           648.1635          645.6186
  1314    65.9976    645(10)           648.7184          645.6601
  1315    66.0476    653(10)           649.4634          645.7016
  1316    66.0976    648(10)           650.3323          645.7430
  1317    66.1476    661(10)           651.2148          645.7843
  1318    66.1976    653(10)           651.9979          645.8256
  1319    66.2476    666(10)           652.6359          645.8668
  1320    66.2976    662(10)           653.1010          645.9080
  1321    66.3476    668(10)           653.2733          645.9490
  1322    66.3976    664(10)           652.9756          645.9901
  1323    66.4476    686(10)           652.1791          646.0311
  1324    66.4976    665(10)           651.0840          646.0720
  1325    66.5476    657(10)           649.9480          646.1129
  1326    66.5976    649(10)           648.9357          646.1537
  1327    66.6476    657(10)           648.1559          646.1945
  1328    66.6976    652(10)           647.6075          646.2352
  1329    66.7476    658(10)           647.2571          646.2758
  1330    66.7976    646(10)           647.0527          646.3164
  1331    66.8476    647(10)           646.9443          646.3569
  1332    66.8976    669(10)           646.8942          646.3973
  1333    66.9476    659(10)           646.8794          646.4377
  1334    66.9976    647(10)           646.8890          646.4781
  1335    67.0476    642(10)           646.9227          646.5184
  1336    67.0976    655(10)           646.9792          646.5586
  1337    67.1476    688(10)           647.0654          646.5988
  1338    67.1976    675(10)           647.1835          646.6389
  1339    67.2476    672(10)           647.3299          646.6789
  1340    67.2976    667(10)           647.4905          646.7189
  1341    67.3476    665(10)           647.6379          646.7588
  1342    67.3976    664(10)           647.7341          646.7986
  1343    67.4476    651(10)           647.7493          646.8384
  1344    67.4976    653(10)           647.6895          646.8782
  1345    67.5476    654(10)           647.5898          646.9178
  1346    67.5976    662(10)           647.4857          646.9575
  1347    67.6476    667(10)           647.3350          646.9970
  1348    67.6976    660(10)           647.2793          647.0365
  1349    67.7476    655(10)           647.2518          647.0759
  1350    67.7976    660(10)           647.2476          647.1153
  1351    67.8476    653(10)           647.2598          647.1546
  1352    67.8976    655(10)           647.2823          647.1938
  1353    67.9476    649(10)           647.3107          647.2330
  1354    67.9976    666(10)           647.3425          647.2722
  1355    68.0476    658(10)           647.3760          647.3112
  1356    68.0976    655(10)           647.4107          647.3502
  1357    68.1476    647(10)           647.4462          647.3892
  1358    68.1976    645(10)           647.4822          647.4280
  1359    68.2476    656(10)           647.5187          647.4669
  1360    68.2976    643(10)           648.0924          647.5056
  1361    68.3476    650(10)           648.1548          647.5443
  1362    68.3976    647(10)           648.2192          647.5829
  1363    68.4476    649(10)           648.2798          647.6215
  1364    68.4976    647(10)           648.3500          647.6599
  1365    68.5476    653(10)           648.4231          647.6984
  1366    68.5976    663(10)           648.4996          647.7368
  1367    68.6476    663(10)           648.5662          647.7750
  1368    68.6976    662(10)           648.6520          647.8133
  1369    68.7476    649(10)           648.7440          647.8514
  1370    68.7976    650(10)           648.8452          647.8896
  1371    68.8476    650(10)           648.9599          647.9276
  1372    68.8976    649(10)           649.0947          647.9656
  1373    68.9476    652(10)           649.2573          648.0035
  1374    68.9976    654(10)           649.4547          648.0414
  1375    69.0476    655(10)           649.7313          648.0792
  1376    69.0976    633(10)           649.9980          648.1169
  1377    69.1476    630(10)           650.2765          648.1545
  1378    69.1976    648(10)           650.5336          648.1921
  1379    69.2476    653(10)           650.7316          648.2297
  1380    69.2976    663(10)           651.3148          648.2671
  1381    69.3476    653(10)           651.4170          648.3045
  1382    69.3976    658(10)           651.5195          648.3419
  1383    69.4476    656(10)           651.6577          648.3791
  1384    69.4976    654(10)           651.8538          648.4163
  1385    69.5476    654(10)           652.1193          648.4534
  1386    69.5976    648(10)           652.4598          648.4905
  1387    69.6476    671(10)           652.8795          648.5275
  1388    69.6976    646(10)           653.3836          648.5645
  1389    69.7476    652(10)           653.9901          648.6013
  1390    69.7976    645(10)           654.7220          648.6381
  1391    69.8476    652(10)           655.6257          648.6749
  1392    69.8976    664(10)           656.7919          648.7115
  1393    69.9476    664(10)           658.4072          648.7482
  1394    69.9976    659(10)           660.8534          648.7847
  1395    70.0476    668(10)           664.8510          648.8212
  1396    70.0976    666(11)           671.6177          648.8576
  1397    70.1476    689(11)           682.8585          648.8939
  1398    70.1976    701(11)           700.5277          648.9302
  1399    70.2476    725(11)           726.0768          648.9664
  1400    70.2976    750(11)           759.3597          649.0026
  1401    70.3476    796(11)           797.4897          649.0386
  1402    70.3976    842(12)           833.9238          649.0746
  1403    70.4476    865(12)           858.4297          649.1106
  1404    70.4976    868(12)           861.1537          649.1465
  1405    70.5476    866(12)           840.9326          649.1823
  1406    70.5976    828(12)           806.5693          649.2180
  1407    70.6476    784(11)           768.7597          649.2537
  1408    70.6976    738(11)           734.8988          649.2892
  1409    70.7476    714(11)           708.5757          649.3248
  1410    70.7976    692(11)           690.4844          649.3603
  1411    70.8476    684(11)           679.5453          649.3957
  1412    70.8976    693(11)           674.0508          649.4310
  1413    70.9476    681(11)           672.5076          649.4662
  1414    70.9976    684(11)           674.0175          649.5015
  1415    71.0476    686(11)           678.3376          649.5366
  1416    71.0976    705(11)           685.8445          649.5717
  1417    71.1476    707(11)           697.1127          649.6066
  1418    71.1976    715(11)           712.9468          649.6415
  1419    71.2476    739(11)           733.8825          649.6764
  1420    71.2976    766(11)           759.9186          649.7112
  1421    71.3476    802(11)           789.4339          649.7459
  1422    71.3976    840(12)           817.6839          649.7805
  1423    71.4476    844(12)           836.3651          649.8151
  1424    71.4976    862(12)           836.9756          649.8496
  1425    71.5476    855(12)           818.1699          649.8840
  1426    71.5976    804(11)           787.3099          649.9184
  1427    71.6476    772(11)           753.5838          649.9527
  1428    71.6976    723(11)           723.3552          649.9869
  1429    71.7476    699(11)           699.6700          650.0211
  1430    71.7976    700(11)           683.0371          650.0552
  1431    71.8476    674(11)           672.3867          650.0892
  1432    71.8976    666(11)           666.0526          650.1232
  1433    71.9476    682(10)           662.4917          650.1570
  1434    71.9976    667(10)           660.5876          650.1909
  1435    72.0476    663(10)           659.9564          650.2246
  1436    72.0976    650(10)           659.7809          650.2583
  1437    72.1476    649(10)           659.7377          650.2919
  1438    72.1976    650(10)           659.7461          650.3254
  1439    72.2476    662(10)           659.5549          650.3589
  1440    72.2976    659(10)           659.9756          650.3923
  1441    72.3476    651(10)           659.1969          650.4256
  1442    72.3976    652(10)           658.3275          650.4589
  1443    72.4476    648(10)           657.5319          650.4920
  1444    72.4976    641(10)           656.9030          650.5251
  1445    72.5476    640(10)           656.4729          650.5582
  1446    72.5976    649(10)           656.2319          650.5911
  1447    72.6476    650(10)           656.1522          650.6240
  1448    72.6976    656(10)           655.6931          650.6569
  1449    72.7476    640(10)           655.9132          650.6896
  1450    72.7976    651(10)           656.3135          650.7223
  1451    72.8476    654(10)           656.9948          650.7549
  1452    72.8976    654(10)           658.1254          650.7875
  1453    72.9476    665(10)           659.9242          650.8199
  1454    72.9976    654(10)           662.5975          650.8524
  1455    73.0476    652(11)           666.4026          650.8846
  1456    73.0976    660(11)           670.8041          650.9169
  1457    73.1476    667(11)           675.3993          650.9491
  1458    73.1976    664(11)           679.1564          650.9812
  1459    73.2476    674(11)           680.8271          651.0132
  1460    73.2976    670(11)           679.8492          651.0452
  1461    73.3476    669(11)           676.9147          651.0771
  1462    73.3976    667(11)           673.3166          651.1089
  1463    73.4476    663(11)           670.0276          651.1407
  1464    73.4976    654(11)           667.6907          651.1724
  1465    73.5476    663(11)           666.4608          651.2040
  1466    73.5976    661(11)           666.3070          651.2355
  1467    73.6476    671(11)           667.1368          651.2670
  1468    73.6976    648(11)           668.5204          651.2984
  1469    73.7476    656(11)           671.6467          651.3298
  1470    73.7976    680(11)           676.7694          651.3610
  1471    73.8476    674(11)           685.1711          651.3922
  1472    73.8976    687(11)           698.7051          651.4233
  1473    73.9476    708(11)           719.5132          651.4543
  1474    73.9976    746(11)           749.4514          651.4853
  1475    74.0476    787(11)           789.2952          651.5162
  1476    74.0976    839(12)           837.9451          651.5470
  1477    74.1476    899(12)           891.6412          651.5778
  1478    74.1976    943(13)           944.1277          651.6085
  1479    74.2476    1006(13)           990.7112          651.6390
  1480    74.2976    1044(13)          1032.2150          651.6696
  1481    74.3476    1088(13)          1070.0116          651.7000
  1482    74.3976    1124(13)          1097.3706          651.7304
  1483    74.4476    1123(13)          1098.6185          651.7607
  1484    74.4976    1101(13)          1062.2131          651.7910
  1485    74.5476    1028(13)           995.4198          651.8211
  1486    74.5976    946(12)           917.3596          651.8512
  1487    74.6476    864(12)           844.2025          651.8812
  1488    74.6976    784(11)           784.9221          651.9112
  1489    74.7476    734(11)           742.3793          651.9410
  1490    74.7976    725(11)           715.4174          651.9709
  1491    74.8476    683(11)           701.0085          652.0006
  1492    74.8976    689(11)           696.0139          652.0302
  1493    74.9476    681(11)           697.9941          652.0598
  1494    74.9976    698(11)           705.0641          652.0893
  1495    75.0476    713(11)           715.2881          652.1188
  1496    75.0976    712(11)           725.9213          652.1481
  1497    75.1476    748(11)           733.2206          652.1774
  1498    75.1976    745(11)           733.5384          652.2066
  1499    75.2476    730(11)           726.3201          652.2358
  1500    75.2976    717(11)           714.5119          652.2648
  1501    75.3476    697(11)           701.6746          652.2938
  1502    75.3976    687(11)           690.0413          652.3228
  1503    75.4476    669(11)           680.4819          652.3516
  1504    75.4976    671(11)           673.2585          652.3804
  1505    75.5476    653(11)           668.0758          652.4091
  1506    75.5976    655(10)           664.4970          652.4377
  1507    75.6476    656(10)           662.0595          652.4662
  1508    75.6976    643(10)           660.3933          652.4947
  1509    75.7476    652(10)           659.2364          652.5231
  1510    75.7976    658(10)           658.4122          652.5515
  1511    75.8476    663(10)           657.8036          652.5797
  1512    75.8976    661(10)           657.3347          652.6078
  1513    75.9476    653(10)           656.9589          652.6360
  1514    75.9976    649(10)           656.6479          652.6640
  1515    76.0476    639(10)           656.3856          652.6920
  1516    76.0976    635(10)           656.1616          652.7198
  1517    76.1476    639(10)           655.9694          652.7477
  1518    76.1976    642(10)           655.8040          652.7754
  1519    76.2476    645(10)           655.6620          652.8030
  1520    76.2976    658(10)           655.5408          652.8306
  1521    76.3476    657(10)           655.4384          652.8582
  1522    76.3976    651(10)           655.0650          652.8856
  1523    76.4476    655(10)           654.8466          652.9130
  1524    76.4976    650(10)           654.8134          652.9402
  1525    76.5476    648(10)           654.7963          652.9675
  1526    76.5976    645(10)           654.7986          652.9946
  1527    76.6476    654(10)           653.8949          653.0217
  1528    76.6976    651(10)           654.0065          653.0486
  1529    76.7476    655(10)           654.1886          653.0756
  1530    76.7976    654(10)           654.4943          653.1024
  1531    76.8476    650(10)           655.0009          653.1292
  1532    76.8976    655(10)           655.7997          653.1559
  1533    76.9476    654(10)           657.0396          653.1825
  1534    76.9976    652(10)           658.5890          653.2090
  1535    77.0476    645(10)           660.4265          653.2355
  1536    77.0976    652(10)           662.3086          653.2619
  1537    77.1476    662(10)           663.8422          653.2882
  1538    77.1976    676(11)           667.6971          653.3145
  1539    77.2476    667(11)           668.0215          653.3406
  1540    77.2976    662(11)           667.9312          653.3667
  1541    77.3476    650(11)           667.3395          653.3927
  1542    77.3976    656(11)           666.4877          653.4186
  1543    77.4476    653(10)           665.1947          653.4445
  1544    77.4976    655(10)           663.7211          653.4703
  1545    77.5476    650(10)           662.3687          653.4960
  1546    77.5976    651(10)           661.3057          653.5217
  1547    77.6476    655(10)           660.6175          653.5472
  1548    77.6976    666(10)           660.2717          653.5728
  1549    77.7476    647(10)           660.2043          653.5981
  1550    77.7976    659(10)           660.3412          653.6235
  1551    77.8476    661(10)           660.6209          653.6487
  1552    77.8976    663(10)           661.0033          653.6740
  1553    77.9476    664(10)           661.4680          653.6991
  1554    77.9976    651(10)           662.0084          653.7241
  1555    78.0476    669(10)           662.6269          653.7491
  1556    78.0976    657(10)           663.3307          653.7740
  1557    78.1476    657(10)           665.1837          653.7988
  1558    78.1976    665(11)           666.1475          653.8235
  1559    78.2476    661(11)           667.2465          653.8481
  1560    78.2976    658(11)           668.5051          653.8727
  1561    78.3476    666(11)           669.9545          653.8973
  1562    78.3976    677(11)           671.6353          653.9217
  1563    78.4476    681(11)           673.5999          653.9460
  1564    78.4976    684(11)           675.9212          653.9703
  1565    78.5476    676(11)           678.7040          653.9946
  1566    78.5976    685(11)           682.1098          654.0187
  1567    78.6476    696(11)           686.4034          654.0427
  1568    78.6976    695(11)           692.0240          654.0667
  1569    78.7476    688(11)           699.7228          654.0906
  1570    78.7976    699(11)           710.8031          654.1144
  1571    78.8476    712(11)           727.5814          654.1382
  1572    78.8976    752(11)           754.1531          654.1619
  1573    78.9476    793(12)           800.5090          654.1855
  1574    78.9976    864(12)           869.8283          654.2090
  1575    79.0476    967(13)           975.9757          654.2325
  1576    79.0976    1124(14)          1126.9304          654.2559
  1577    79.1476    1312(15)          1323.3435          654.2792
  1578    79.1976    1548(16)          1544.4597          654.3024
  1579    79.2476    1746(17)          1749.0999          654.3255
  1580    79.2976    1918(18)          1870.9197          654.3486
  1581    79.3476    1928(18)          1853.0581          654.3716
  1582    79.3976    1804(17)          1703.3214          654.3945
  1583    79.4476    1581(16)          1485.5286          654.4174
  1584    79.4976    1313(14)          1263.0955          654.4401
  1585    79.5476    1092(13)          1074.6465          654.4628
  1586    79.5976    930(12)           935.3451          654.4854
  1587    79.6476    843(12)           843.5217          654.5079
  1588    79.6976    787(11)           788.8438          654.5304
  1589    79.7476    745(11)           759.2980          654.5528
  1590    79.7976    747(11)           745.6377          654.5751
  1591    79.8476    727(11)           742.8652          654.5974
  1592    79.8976    746(11)           751.6151          654.6195
  1593    79.9476    770(11)           770.8650          654.6416
  1594    79.9976    798(12)           805.7003          654.6636
  1595    80.0476    831(12)           858.8174          654.6855
  1596    80.0976    889(12)           930.3255          654.7074
  1597    80.1476    976(13)          1010.0681          654.7292
  1598    80.1976    1051(13)          1082.5664          654.7509
  1599    80.2476    1116(14)          1123.6074          654.7725
  1600    80.2976    1108(14)          1114.7178          654.7941
  1601    80.3476    1078(13)          1061.8263          654.8155
  1602    80.3976    995(13)           988.7705          654.8369
  1603    80.4476    924(12)           917.7233          654.8582
  1604    80.4976    859(12)           862.2698          654.8795
  1605    80.5476    847(12)           829.0263          654.9006
  1606    80.5976    846(12)           821.0916          654.9218
  1607    80.6476    881(12)           842.0981          654.9427
  1608    80.6976    933(12)           899.2107          654.9637
  1609    80.7476    1044(13)          1003.0978          654.9846
  1610    80.7976    1221(14)          1163.6233          655.0053
  1611    80.8476    1415(15)          1382.3628          655.0260
  1612    80.8976    1665(16)          1643.5076          655.0467
  1613    80.9476    1921(18)          1907.0212          655.0672
  1614    80.9976    2133(19)          2107.1689          655.0877
  1615    81.0476    2239(19)          2185.4282          655.1081
  1616    81.0976    2212(19)          2136.0210          655.1284
  1617    81.1476    2073(18)          2013.2256          655.1487
  1618    81.1976    1890(18)          1857.6276          655.1688
  1619    81.2476    1697(17)          1678.8984          655.1890
  1620    81.2976    1497(16)          1482.8154          655.2090
  1621    81.3476    1311(15)          1291.0930          655.2289
  1622    81.3976    1131(14)          1125.9844          655.2488
  1623    81.4476    1009(13)           995.3289          655.2686
  1624    81.4976    904(12)           906.6719          655.2883
  1625    81.5476    852(12)           853.6524          655.3079
  1626    81.5976    832(12)           831.9890          655.3275
  1627    81.6476    837(12)           839.3580          655.3470
  1628    81.6976    865(12)           876.6384          655.3663
  1629    81.7476    943(13)           946.5193          655.3857
  1630    81.7976    1039(13)          1051.0793          655.4050
  1631    81.8476    1150(14)          1182.1562          655.4241
  1632    81.8976    1301(15)          1324.6182          655.4432
  1633    81.9476    1480(15)          1448.9951          655.4622
  1634    81.9976    1568(16)          1523.7520          655.4812
  1635    82.0476    1565(16)          1542.2898          655.5001
  1636    82.0976    1525(16)          1523.2866          655.5189
  1637    82.1476    1474(16)          1478.7010          655.5376
  1638    82.1976    1396(15)          1402.1812          655.5562
  1639    82.2476    1279(15)          1290.2502          655.5748
  1640    82.2976    1144(14)          1160.3735          655.5933
  1641    82.3476    1032(13)          1036.6724          655.6117
  1642    82.3976    920(12)           933.3947          655.6300
  1643    82.4476    835(12)           858.3151          655.6483
  1644    82.4976    789(12)           809.4161          655.6664
  1645    82.5476    757(11)           782.3782          655.6845
  1646    82.5976    759(11)           772.3923          655.7026
  1647    82.6476    779(11)           776.3721          655.7205
  1648    82.6976    775(11)           794.1536          655.7384
  1649    82.7476    822(12)           828.9641          655.7562
  1650    82.7976    883(12)           887.2351          655.7739
  1651    82.8476    942(13)           977.0790          655.7915
  1652    82.8976    1080(14)          1105.0358          655.8091
  1653    82.9476    1234(15)          1271.9935          655.8266
  1654    82.9976    1432(16)          1468.2909          655.8440
  1655    83.0476    1631(17)          1661.4296          655.8613
  1656    83.0976    1794(17)          1795.3606          655.8786
  1657    83.1476    1859(17)          1805.4056          655.8958
  1658    83.1976    1761(17)          1686.7150          655.9128
  1659    83.2476    1584(16)          1488.8784          655.9299
  1660    83.2976    1331(15)          1276.4869          655.9468
  1661    83.3476    1109(13)          1090.9327          655.9637
  1662    83.3976    963(13)           954.4805          655.9805
  1663    83.4476    872(12)           868.4292          655.9973
  1664    83.4976    818(12)           826.9507          656.0139
  1665    83.5476    812(12)           822.9484          656.0305
  1666    83.5976    851(12)           851.5269          656.0469
  1667    83.6476    898(12)           909.0670          656.0634
  1668    83.6976    970(13)           989.4518          656.0797
  1669    83.7476    1069(13)          1079.0391          656.0959
  1670    83.7976    1156(14)          1154.3365          656.1121
  1671    83.8476    1197(14)          1184.8068          656.1282
  1672    83.8976    1185(14)          1153.3538          656.1442
  1673    83.9476    1078(13)          1074.9480          656.1602
  1674    83.9976    976(13)           978.2631          656.1760
  1675    84.0476    873(12)           887.5143          656.1918
  1676    84.0976    812(12)           813.5223          656.2075
  1677    84.1476    766(11)           762.4857          656.2232
  1678    84.1976    731(11)           729.9987          656.2388
  1679    84.2476    716(11)           710.8255          656.2542
  1680    84.2976    696(11)           698.7387          656.2697
  1681    84.3476    682(11)           692.6245          656.2850
  1682    84.3976    680(11)           689.0760          656.3002
  1683    84.4476    685(11)           687.0364          656.3154
  1684    84.4976    677(11)           686.0970          656.3305
  1685    84.5476    677(11)           686.2794          656.3455
  1686    84.5976    679(11)           688.0386          656.3605
  1687    84.6476    696(11)           693.8915          656.3754
  1688    84.6976    702(11)           702.9524          656.3901
  1689    84.7476    711(11)           719.3747          656.4048
  1690    84.7976    738(11)           746.1725          656.4195
  1691    84.8476    795(11)           785.1497          656.4340
  1692    84.8976    847(12)           834.9194          656.4485
  1693    84.9476    904(12)           888.8979          656.4630
  1694    84.9976    959(12)           933.8654          656.4772
  1695    85.0476    969(13)           952.8339          656.4915
  1696    85.0976    951(12)           936.0857          656.5057
  1697    85.1476    923(12)           892.2778          656.5198
  1698    85.1976    845(12)           838.7495          656.5338
  1699    85.2476    795(11)           786.2917          656.5477
  1700    85.2976    760(11)           747.5315          656.5616
  1701    85.3476    729(11)           721.5568          656.5754
  1702    85.3976    709(11)           707.1680          656.5891
  1703    85.4476    717(11)           702.1055          656.6027
  1704    85.4976    711(11)           704.4438          656.6163
  1705    85.5476    699(11)           713.0609          656.6298
  1706    85.5976    724(11)           727.4012          656.6431
  1707    85.6476    732(11)           747.0041          656.6565
  1708    85.6976    757(11)           770.9323          656.6697
  1709    85.7476    786(11)           797.6631          656.6829
  1710    85.7976    826(12)           826.5487          656.6960
  1711    85.8476    845(12)           858.4071          656.7090
  1712    85.8976    887(12)           891.5942          656.7219
  1713    85.9476    932(12)           916.8923          656.7348
  1714    85.9976    928(12)           923.7948          656.7476
  1715    86.0476    917(12)           903.9570          656.7603
  1716    86.0976    894(12)           864.7281          656.7729
  1717    86.1476    837(12)           820.1340          656.7855
  1718    86.1976    791(11)           781.1409          656.7979
  1719    86.2476    772(11)           754.0636          656.8103
  1720    86.2976    747(11)           742.2350          656.8226
  1721    86.3476    749(11)           748.0890          656.8349
  1722    86.3976    783(11)           774.7905          656.8470
  1723    86.4476    833(12)           826.0867          656.8591
  1724    86.4976    918(12)           903.8129          656.8712
  1725    86.5476    1014(13)          1003.6941          656.8831
  1726    86.5976    1122(14)          1111.2905          656.8949
  1727    86.6476    1235(14)          1198.7155          656.9067
  1728    86.6976    1261(14)          1230.8756          656.9184
  1729    86.7476    1215(14)          1190.7104          656.9300
  1730    86.7976    1112(13)          1098.2262          656.9415
  1731    86.8476    983(13)           988.5737          656.9530
  1732    86.8976    874(12)           887.8692          656.9644
  1733    86.9476    810(12)           809.0437          656.9757
  1734    86.9976    749(11)           754.5449          656.9869
  1735    87.0476    715(11)           720.4714          656.9981
  1736    87.0976    703(11)           700.6082          657.0092
  1737    87.1476    688(11)           688.6099          657.0201
  1738    87.1976    664(11)           681.9796          657.0311
  1739    87.2476    671(11)           677.7342          657.0419
  1740    87.2976    683(11)           674.7381          657.0527
  1741    87.3476    675(11)           672.4603          657.0634
  1742    87.3976    664(11)           670.6508          657.0740
  1743    87.4476    662(11)           669.1816          657.0845
  1744    87.4976    661(11)           667.9775          657.0950
  1745    87.5476    665(11)           667.1053          657.1053
  1746    87.5976    658(11)           666.3110          657.1157
  1747    87.6476    657(10)           665.6810          657.1259
  1748    87.6976    664(10)           665.1953          657.1360
  1749    87.7476    644(10)           664.8781          657.1461
  1750    87.7976    650(11)           666.4191          657.1561
  1751    87.8476    643(11)           666.1110          657.1660
  1752    87.8976    654(10)           665.9667          657.1758
  1753    87.9476    648(10)           665.8208          657.1856
  1754    87.9976    652(10)           665.7148          657.1953
  1755    88.0476    652(10)           665.7021          657.2048
  1756    88.0976    652(10)           665.2706          657.2144
  1757    88.1476    670(10)           665.6716          657.2238
  1758    88.1976    659(11)           666.4685          657.2332
  1759    88.2476    675(11)           667.9600          657.2425
  1760    88.2976    665(11)           670.6234          657.2517
  1761    88.3476    672(11)           675.0677          657.2608
  1762    88.3976    668(11)           681.8287          657.2699
  1763    88.4476    667(11)           690.9963          657.2789
  1764    88.4976    690(11)           701.8007          657.2878
  1765    88.5476    695(11)           712.2444          657.2966
  1766    88.5976    687(11)           719.0780          657.3053
  1767    88.6476    705(11)           719.2759          657.3140
  1768    88.6976    693(11)           713.1010          657.3226
  1769    88.7476    701(11)           703.4057          657.3311
  1770    88.7976    671(11)           692.1779          657.3395
  1771    88.8476    662(11)           684.1606          657.3478
  1772    88.8976    664(11)           678.6587          657.3561
  1773    88.9476    661(11)           675.5795          657.3643
  1774    88.9976    668(11)           674.4198          657.3724
  1775    89.0476    671(11)           674.6420          657.3805
  1776    89.0976    664(11)           675.8937          657.3884
  1777    89.1476    657(11)           678.0962          657.3964
  1778    89.1976    678(11)           681.4662          657.4042
  1779    89.2476    678(11)           686.5371          657.4119
  1780    89.2976    683(11)           694.1865          657.4195
  1781    89.3476    707(11)           705.7062          657.4271
  1782    89.3976    726(11)           723.0360          657.4346
  1783    89.4476    762(11)           749.0440          657.4420
  1784    89.4976    777(11)           788.0330          657.4493
  1785    89.5476    842(12)           845.3126          657.4566
  1786    89.5976    942(12)           926.2766          657.4638
  1787    89.6476    1044(13)          1034.1941          657.4709
  1788    89.6976    1168(14)          1163.9823          657.4779
  1789    89.7476    1304(15)          1294.8975          657.4849
  1790    89.7976    1445(15)          1387.6874          657.4917
  1791    89.8476    1467(15)          1399.0149          657.4985
  1792    89.8976    1381(15)          1319.9431          657.5052
  1793    89.9476    1244(14)          1186.6450          657.5118
  1794    89.9976    1063(13)          1043.5804          657.5184
  1795    90.0476    904(12)           919.6746          657.5249
  1796    90.0976    812(12)           827.0636          657.5312
  1797    90.1476    753(11)           765.6127          657.5376
  1798    90.1976    712(11)           728.6146          657.5438
  1799    90.2476    688(11)           707.8311          657.5500
  1800    90.2976    680(11)           696.6693          657.5561
  1801    90.3476    673(11)           691.1008          657.5621
  1802    90.3976    672(11)           689.2946          657.5680
  1803    90.4476    683(11)           690.6932          657.5739
  1804    90.4976    680(11)           695.2748          657.5796
  1805    90.5476    694(11)           702.7230          657.5853
  1806    90.5976    694(11)           711.8534          657.5909
  1807    90.6476    695(11)           720.2167          657.5964
  1808    90.6976    704(11)           724.1028          657.6019
  1809    90.7476    711(11)           721.1360          657.6072
  1810    90.7976    713(11)           712.1785          657.6125
  1811    90.8476    696(11)           700.6920          657.6178
  1812    90.8976    696(11)           689.6673          657.6229
  1813    90.9476    662(11)           680.7454          657.6280
  1814    90.9976    663(11)           674.4166          657.6329
  1815    91.0476    645(11)           670.4421          657.6379
  1816    91.0976    652(11)           668.2900          657.6427
  1817    91.1476    652(11)           667.4628          657.6474
  1818    91.1976    654(11)           667.6199          657.6521
  1819    91.2476    662(11)           668.5211          657.6567
  1820    91.2976    655(11)           669.8964          657.6612
  1821    91.3476    663(11)           671.3224          657.6656
  1822    91.3976    648(11)           672.1751          657.6699
  1823    91.4476    649(11)           671.8713          657.6742
  1824    91.4976    649(11)           670.4068          657.6784
  1825    91.5476    644(11)           668.3650          657.6825
  1826    91.5976    651(11)           666.2969          657.6865
  1827    91.6476    649(10)           664.4508          657.6905
  1828    91.6976    651(10)           663.1541          657.6943
  1829    91.7476    648(10)           662.2454          657.6981
  1830    91.7976    657(10)           661.6226          657.7018
  1831    91.8476    659(10)           661.1483          657.7055
  1832    91.8976    645(10)           659.0942          657.7090
  1833    91.9476    637(10)           659.0020          657.7125
  1834    91.9976    644(10)           659.0216          657.7159
  1835    92.0476    637(10)           659.1924          657.7192
  1836    92.0976    647(10)           659.5847          657.7225
  1837    92.1476    660(10)           660.2833          657.7256
  1838    92.1976    651(10)           661.3465          657.7287
  1839    92.2476    650(10)           662.7461          657.7317
  1840    92.2976    667(10)           664.2991          657.7346
  1841    92.3476    659(10)           665.6296          657.7374
  1842    92.3976    656(11)           666.2181          657.7402
  1843    92.4476    655(10)           665.7505          657.7429
  1844    92.4976    663(10)           664.5728          657.7455
  1845    92.5476    658(10)           663.0034          657.7480
  1846    92.5976    639(10)           661.5333          657.7504
  1847    92.6476    643(10)           660.3771          657.7528
  1848    92.6976    653(10)           659.5809          657.7551
  1849    92.7476    657(10)           659.0909          657.7573
  1850    92.7976    647(10)           658.6811          657.7594
  1851    92.8476    664(10)           658.5435          657.7614
  1852    92.8976    647(10)           658.4792          657.7634
  1853    92.9476    636(10)           658.4564          657.7653
  1854    92.9976    652(10)           658.4611          657.7671
  1855    93.0476    659(10)           658.4919          657.7688
  1856    93.0976    650(10)           658.5592          657.7704
  1857    93.1476    655(10)           658.6883          657.7720
  1858    93.1976    653(10)           658.9267          657.7734
  1859    93.2476    658(10)           659.3510          657.7748
  1860    93.2976    652(10)           660.0256          657.7762
  1861    93.3476    646(10)           661.0060          657.7774
  1862    93.3976    653(10)           662.2602          657.7786
  1863    93.4476    663(10)           663.6224          657.7797
  1864    93.4976    651(10)           664.7344          657.7806
  1865    93.5476    652(10)           665.2078          657.7816
  1866    93.5976    647(10)           664.7953          657.7823
  1867    93.6476    649(10)           663.7407          657.7831
  1868    93.6976    638(10)           662.4828          657.7838
  1869    93.7476    647(10)           661.3511          657.7844
  1870    93.7976    664(10)           660.5100          657.7849
  1871    93.8476    653(10)           659.9969          657.7853
  1872    93.8976    662(10)           659.7720          657.7856
  1873    93.9476    652(10)           659.7789          657.7859
  1874    93.9976    652(10)           659.9893          657.7861
  1875    94.0476    655(10)           660.4380          657.7863
  1876    94.0976    640(10)           661.2565          657.7863
  1877    94.1476    646(10)           662.7101          657.7862
  1878    94.1976    657(10)           665.2072          657.7861
  1879    94.2476    647(11)           669.2277          657.7858
  1880    94.2976    660(11)           675.1268          657.7855
  1881    94.3476    685(11)           682.8279          657.7852
  1882    94.3976    694(11)           691.5585          657.7847
  1883    94.4476    703(11)           699.1872          657.7841
  1884    94.4976    683(11)           702.9872          657.7835
  1885    94.5476    688(11)           701.1135          657.7828
  1886    94.5976    678(11)           694.5128          657.7820
  1887    94.6476    683(11)           685.8965          657.7811
  1888    94.6976    670(11)           677.6136          657.7802
  1889    94.7476    668(11)           670.9490          657.7792
  1890    94.7976    654(11)           666.2674          657.7780
  1891    94.8476    651(10)           663.3392          657.7769
  1892    94.8976    660(10)           661.6931          657.7756
  1893    94.9476    648(10)           660.8810          657.7742
  1894    94.9976    637(10)           660.5898          657.7728
  1895    95.0476    648(10)           660.6335          657.7712
  1896    95.0976    644(10)           660.8910          657.7696
  1897    95.1476    652(10)           661.2428          657.7679
  1898    95.1976    650(10)           661.5275          657.7662
  1899    95.2476    654(10)           661.5620          657.7643
  1900    95.2976    647(10)           661.2690          657.7623
  1901    95.3476    670(10)           663.4693          657.7603
  1902    95.3976    654(10)           663.0517          657.7582
  1903    95.4476    663(10)           662.7104          657.7560
  1904    95.4976    644(10)           662.5062          657.7538
  1905    95.5476    649(10)           662.4465          657.7514
  1906    95.5976    652(10)           662.4945          657.7490
  1907    95.6476    650(10)           662.6564          657.7465
  1908    95.6976    658(10)           662.8925          657.7439
  1909    95.7476    654(10)           663.1923          657.7412
  1910    95.7976    637(10)           663.5551          657.7384
  1911    95.8476    641(10)           663.9924          657.7356
  1912    95.8976    661(10)           664.5333          657.7327
  1913    95.9476    648(10)           665.2416          657.7296
  1914    95.9976    646(11)           666.2474          657.7266
  1915    96.0476    645(11)           667.8192          657.7233
  1916    96.0976    663(11)           670.2487          657.7201
  1917    96.1476    669(11)           673.9958          657.7167
  1918    96.1976    669(11)           679.3859          657.7133
  1919    96.2476    673(11)           686.3771          657.7098
  1920    96.2976    683(11)           694.2711          657.7062
  1921    96.3476    690(11)           701.4944          657.7025
  1922    96.3976    698(11)           705.7606          657.6987
  1923    96.4476    693(11)           705.4953          657.6949
  1924    96.4976    699(11)           701.5801          657.6910
  1925    96.5476    695(11)           696.3419          657.6870
  1926    96.5976    681(11)           691.7825          657.6829
  1927    96.6476    694(11)           689.0798          657.6786
  1928    96.6976    688(11)           688.5913          657.6744
  1929    96.7476    692(11)           690.3310          657.6700
  1930    96.7976    707(11)           694.3565          657.6656
  1931    96.8476    719(11)           701.2792          657.6611
  1932    96.8976    747(11)           712.9921          657.6565
  1933    96.9476    773(11)           733.6740          657.6518
  1934    96.9976    817(11)           770.8436          657.6470
  1935    97.0476    897(12)           835.4203          657.6422
  1936    97.0976    1004(12)           939.2944          657.6372
  1937    97.1476    1168(13)          1089.5424          657.6322
  1938    97.1976    1369(15)          1280.1128          657.6271
  1939    97.2476    1573(16)          1484.0161          657.6219
  1940    97.2976    1720(17)          1648.1029          657.6166
  1941    97.3476    1717(17)          1705.0328          657.6112
  1942    97.3976    1608(16)          1624.8569          657.6058
  1943    97.4476    1403(15)          1448.8304          657.6002
  1944    97.4976    1192(14)          1244.2007          657.5946
  1945    97.5476    1014(13)          1059.4928          657.5889
  1946    97.5976    891(12)           917.5627          657.5831
  1947    97.6476    801(12)           821.4846          657.5772
  1948    97.6976    752(11)           762.8955          657.5712
  1949    97.7476    720(11)           729.8275          657.5652
  1950    97.7976    703(11)           712.0035          657.5590
  1951    97.8476    693(11)           702.5833          657.5529
  1952    97.8976    695(11)           697.6819          657.5465
  1953    97.9476    695(11)           695.1605          657.5401
  1954    97.9976    694(11)           693.6265          657.5336
  1955    98.0476    694(11)           691.7435          657.5270
  1956    98.0976    698(11)           688.7155          657.5204
  1957    98.1476    674(11)           684.6681          657.5137
  1958    98.1976    676(11)           680.3472          657.5068
  1959    98.2476    667(11)           676.3970          657.4999
  1960    98.2976    664(11)           673.1494          657.4929
  1961    98.3476    658(11)           670.6707          657.4858
  1962    98.3976    659(11)           668.8551          657.4786
  1963    98.4476    644(11)           667.4417          657.4714
  1964    98.4976    670(11)           666.4508          657.4641
  1965    98.5476    664(10)           665.6717          657.4566
  1966    98.5976    642(10)           665.0329          657.4491
  1967    98.6476    652(10)           664.4951          657.4415
  1968    98.6976    661(10)           664.0382          657.4338
  1969    98.7476    644(10)           663.6527          657.4260
  1970    98.7976    644(10)           663.3382          657.4182
  1971    98.8476    658(10)           663.1071          657.4102
  1972    98.8976    654(10)           664.3537          657.4021
  1973    98.9476    654(10)           664.4995          657.3940
  1974    98.9976    643(10)           664.9571          657.3857
  1975    99.0476    657(10)           665.8764          657.3774
  1976    99.0976    669(11)           667.3854          657.3691
  1977    99.1476    668(11)           670.3838          657.3606
  1978    99.1976    664(11)           672.9362          657.3520
  1979    99.2476    672(11)           675.3719          657.3433
  1980    99.2976    671(11)           676.8724          657.3346
  1981    99.3476    678(11)           676.7344          657.3257
  1982    99.3976    675(11)           672.5238          657.3168
  1983    99.4476    660(11)           670.2941          657.3078
  1984    99.4976    662(11)           668.1268          657.2986
  1985    99.5476    653(11)           666.4977          657.2895
  1986    99.5976    649(10)           665.6089          657.2802
  1987    99.6476    659(10)           665.5211          657.2708
  1988    99.6976    658(11)           666.2631          657.2614
  1989    99.7476    666(11)           667.8887          657.2518
  1990    99.7976    670(11)           670.4379          657.2421
  1991    99.8476    667(11)           673.8154          657.2324
  1992    99.8976    669(11)           677.6497          657.2226
  1993    99.9476    672(11)           681.1765          657.2127
  1994    99.9976    667(11)           683.3226          657.2027
  1995   100.0476    666(11)           683.3948          657.1926
  1996   100.0976    681(11)           681.9460          657.1824
  1997   100.1476    676(11)           679.9172          657.1721
  1998   100.1976    656(11)           678.3265          657.1617
  1999   100.2476    668(11)           677.6862          657.1513
  2000   100.2976    672(11)           678.2042          657.1407
  2001   100.3476    687(11)           679.9373          657.1301
  2002   100.3976    680(11)           683.0126          657.1194
  2003   100.4476    684(11)           687.9230          657.1086
  2004   100.4976    698(11)           695.9584          657.0977
  2005   100.5476    721(11)           709.7695          657.0867
  2006   100.5976    742(11)           733.8540          657.0756
  2007   100.6476    792(11)           774.4001          657.0644
  2008   100.6976    868(12)           837.6869          657.0531
  2009   100.7476    967(12)           926.9854          657.0417
  2010   100.7976    1082(13)          1038.5911          657.0303
  2011   100.8476    1187(14)          1158.4210          657.0187
  2012   100.8976    1275(14)          1259.4910          657.0071
  2013   100.9476    1332(15)          1312.5287          656.9954
  2014   100.9976    1303(15)          1312.3251          656.9835
  2015   101.0476    1266(15)          1281.5505          656.9716
  2016   101.0976    1235(14)          1239.9004          656.9596
  2017   101.1476    1191(14)          1187.1902          656.9475
  2018   101.1976    1127(14)          1113.9590          656.9353
  2019   101.2476    1031(13)          1023.2852          656.9230
  2020   101.2976    932(12)           931.0059          656.9106
  2021   101.3476    833(12)           850.6163          656.8982
  2022   101.3976    783(11)           788.3217          656.8856
  2023   101.4476    740(11)           744.7584          656.8729
  2024   101.4976    707(11)           716.8231          656.8602
  2025   101.5476    687(11)           700.0236          656.8474
  2026   101.5976    689(11)           690.1859          656.8344
  2027   101.6476    689(11)           684.3264          656.8214
  2028   101.6976    674(11)           680.7234          656.8082
  2029   101.7476    681(11)           678.5983          656.7950
  2030   101.7976    693(11)           677.7927          656.7817
  2031   101.8476    672(11)           678.6752          656.7682
  2032   101.8976    690(11)           681.3463          656.7548
  2033   101.9476    691(11)           686.2316          656.7411
  2034   101.9976    681(11)           693.1611          656.7274
  2035   102.0476    694(11)           701.1512          656.7136
  2036   102.0976    714(11)           708.1125          656.6998
  2037   102.1476    710(11)           711.3362          656.6858
  2038   102.1976    711(11)           709.0215          656.6717
  2039   102.2476    692(11)           702.1252          656.6575
  2040   102.2976    681(11)           693.2787          656.6432
  2041   102.3476    689(11)           684.8544          656.6289
  2042   102.3976    667(11)           678.2343          656.6144
  2043   102.4476    666(11)           673.9621          656.5999
  2044   102.4976    669(11)           672.1335          656.5852
  2045   102.5476    668(11)           672.8217          656.5704
  2046   102.5976    678(11)           676.3359          656.5556
  2047   102.6476    691(11)           683.1671          656.5406
  2048   102.6976    686(11)           693.5728          656.5256
  2049   102.7476    700(11)           707.9435          656.5105
  2050   102.7976    724(11)           722.3434          656.4952
  2051   102.8476    734(11)           733.8466          656.4799
  2052   102.8976    747(11)           737.6449          656.4645
  2053   102.9476    741(11)           731.6498          656.4490
  2054   102.9976    729(11)           717.5577          656.4333
  2055   103.0476    694(11)           702.8565          656.4176
  2056   103.0976    693(11)           689.5968          656.4018
  2057   103.1476    676(11)           679.4207          656.3859
  2058   103.1976    680(11)           672.5718          656.3699
  2059   103.2476    664(11)           667.6360          656.3538
  2060   103.2976    660(10)           665.4828          656.3375
  2061   103.3476    662(10)           664.5330          656.3212
  2062   103.3976    667(10)           664.3758          656.3048
  2063   103.4476    667(10)           664.9197          656.2883
  2064   103.4976    661(11)           666.3742          656.2717
  2065   103.5476    657(11)           669.2101          656.2549
  2066   103.5976    673(11)           674.0425          656.2382
  2067   103.6476    690(11)           681.3651          656.2213
  2068   103.6976    691(11)           691.1349          656.2042
  2069   103.7476    701(11)           702.3448          656.1871
  2070   103.7976    728(11)           712.6664          656.1699
  2071   103.8476    740(11)           718.5865          656.1526
  2072   103.8976    732(11)           717.3629          656.1352
  2073   103.9476    730(11)           709.8643          656.1177
  2074   103.9976    726(11)           699.5794          656.1001
  2075   104.0476    717(11)           693.1506          656.0823
  2076   104.0976    698(11)           685.5118          656.0646
  2077   104.1476    691(11)           680.6030          656.0466
  2078   104.1976    666(11)           678.1768          656.0286
  2079   104.2476    683(11)           677.9738          656.0105
  2080   104.2976    688(11)           679.6146          655.9922
  2081   104.3476    687(11)           683.4561          655.9739
  2082   104.3976    696(11)           690.7160          655.9555
  2083   104.4476    715(11)           703.9047          655.9370
  2084   104.4976    751(11)           726.8215          655.9184
  2085   104.5476    795(11)           763.7365          655.8997
  2086   104.5976    833(12)           817.4160          655.8808
  2087   104.6476    914(12)           886.3352          655.8619
  2088   104.6976    990(13)           961.9720          655.8428
  2089   104.7476    1046(13)          1026.2532          655.8237
  2090   104.7976    1065(13)          1055.2128          655.8044
  2091   104.8476    1046(13)          1034.8447          655.7850
  2092   104.8976    963(13)           976.6436          655.7656
  2093   104.9476    879(12)           904.5314          655.7460
  2094   104.9976    818(12)           839.2827          655.7264
  2095   105.0476    779(11)           786.5508          655.7066
  2096   105.0976    768(11)           749.7396          655.6867
  2097   105.1476    736(11)           726.2668          655.6667
  2098   105.1976    718(11)           712.3173          655.6467
  2099   105.2476    699(11)           704.5703          655.6265
  2100   105.2976    705(11)           700.7498          655.6061
  2101   105.3476    696(11)           699.5408          655.5858
  2102   105.3976    707(11)           700.2896          655.5652
  2103   105.4476    698(11)           702.7463          655.5446
  2104   105.4976    696(11)           706.9824          655.5239
  2105   105.5476    713(11)           713.5213          655.5031
  2106   105.5976    744(11)           723.7706          655.4822
  2107   105.6476    770(11)           740.8928          655.4611
  2108   105.6976    790(11)           771.1731          655.4400
  2109   105.7476    854(12)           824.8036          655.4187
  2110   105.7976    961(12)           916.0767          655.3973
  2111   105.8476    1067(13)          1059.2988          655.3759
  2112   105.8976    1261(14)          1261.2581          655.3543
  2113   105.9476    1483(16)          1512.4902          655.3326
  2114   105.9976    1756(17)          1772.6697          655.3109
  2115   106.0476    2004(18)          1973.5540          655.2889
  2116   106.0976    2084(18)          2032.3000          655.2669
  2117   106.1476    1975(18)          1918.7820          655.2448
  2118   106.1976    1701(17)          1689.7906          655.2225
  2119   106.2476    1393(15)          1428.8606          655.2002
  2120   106.2976    1176(14)          1194.9423          655.1778
  2121   106.3476    1022(13)          1015.8994          655.1552
  2122   106.3976    896(12)           895.8390          655.1326
  2123   106.4476    826(12)           825.1126          655.1097
  2124   106.4976    813(11)           789.6664          655.0869
  2125   106.5476    801(11)           777.3883          655.0639
  2126   106.5976    801(11)           780.2872          655.0408
  2127   106.6476    795(11)           794.2073          655.0175
  2128   106.6976    842(12)           817.8101          654.9942
  2129   106.7476    877(12)           852.0162          654.9708
  2130   106.7976    919(12)           900.8103          654.9472
  2131   106.8476    958(13)           971.3412          654.9235
  2132   106.8976    1069(13)          1070.5436          654.8998
  2133   106.9476    1166(14)          1187.6548          654.8759
  2134   106.9976    1292(15)          1302.4802          654.8519
  2135   107.0476    1387(15)          1376.2969          654.8278
  2136   107.0976    1397(15)          1371.6404          654.8035
  2137   107.1476    1303(15)          1287.6599          654.7792
  2138   107.1976    1150(14)          1160.7473          654.7548
  2139   107.2476    1025(13)          1029.7576          654.7302
  2140   107.2976    923(12)           918.7993          654.7055
  2141   107.3476    849(12)           837.5369          654.6807
  2142   107.3976    801(11)           785.3442          654.6558
  2143   107.4476    757(11)           756.4113          654.6307
  2144   107.4976    741(11)           744.1874          654.6056
  2145   107.5476    748(11)           744.1809          654.5803
  2146   107.5976    759(11)           754.8977          654.5550
  2147   107.6476    794(11)           777.7294          654.5295
  2148   107.6976    838(12)           816.1427          654.5039
  2149   107.7476    892(12)           874.0401          654.4781
  2150   107.7976    966(13)           953.3735          654.4523
  2151   107.8476    1080(13)          1051.9011          654.4264
  2152   107.8976    1181(14)          1159.6644          654.4003
  2153   107.9476    1267(14)          1253.8845          654.3741
  2154   107.9976    1327(15)          1300.1975          654.3478
  2155   108.0476    1279(15)          1273.6577          654.3214
  2156   108.0976    1186(14)          1185.5709          654.2949
  2157   108.1476    1067(13)          1071.0498          654.2682
  2158   108.1976    958(13)           957.3204          654.2415
  2159   108.2476    862(12)           868.0471          654.2146
  2160   108.2976    800(12)           805.1777          654.1876
  2161   108.3476    770(11)           766.3696          654.1605
  2162   108.3976    752(11)           745.8186          654.1332
  2163   108.4476    747(11)           737.8572          654.1058
  2164   108.4976    749(11)           739.0487          654.0784
  2165   108.5476    766(11)           749.2247          654.0507
  2166   108.5976    810(11)           772.1522          654.0230
  2167   108.6476    849(12)           816.0954          653.9952
  2168   108.6976    923(12)           893.3517          653.9672
  2169   108.7476    1055(13)          1017.3525          653.9391
  2170   108.7976    1207(14)          1196.1602          653.9109
  2171   108.8476    1418(15)          1423.5159          653.8826
  2172   108.8976    1646(17)          1671.0498          653.8541
  2173   108.9476    1873(18)          1881.0717          653.8256
  2174   108.9976    1958(18)          1976.1422          653.7969
  2175   109.0476    1898(18)          1909.1892          653.7681
  2176   109.0976    1720(17)          1713.5638          653.7391
  2177   109.1476    1475(16)          1466.1543          653.7101
  2178   109.1976    1235(14)          1228.2435          653.6808
  2179   109.2476    1065(13)          1037.0688          653.6516
  2180   109.2976    926(12)           900.6652          653.6221
  2181   109.3476    840(12)           812.8780          653.5926
  2182   109.3976    783(11)           760.5345          653.5629
  2183   109.4476    755(11)           730.4869          653.5331
  2184   109.4976    727(11)           712.9506          653.5032
  2185   109.5476    700(11)           701.9711          653.4731
  2186   109.5976    697(11)           694.4019          653.4429
  2187   109.6476    700(11)           688.8486          653.4127
  2188   109.6976    695(11)           684.3616          653.3822
  2189   109.7476    679(11)           680.6985          653.3516
  2190   109.7976    686(11)           677.6538          653.3210
  2191   109.8476    687(11)           675.0917          653.2902
  2192   109.8976    689(11)           673.3234          653.2592
  2193   109.9476    683(11)           671.4849          653.2281
  2194   109.9976    678(11)           669.9016          653.1970
  2195   110.0476    662(11)           668.5294          653.1656
  2196   110.0976    667(11)           667.3340          653.1342
  2197   110.1476    670(10)           664.8419          653.1027
  2198   110.1976    659(10)           663.9866          653.0709
  2199   110.2476    665(10)           663.2357          653.0391
  2200   110.2976    663(10)           662.5750          653.0071
  2201   110.3476    671(10)           661.9931          652.9750
  2202   110.3976    677(10)           661.4805          652.9428
  2203   110.4476    673(10)           661.0298          652.9105
  2204   110.4976    652(10)           660.6348          652.8780
  2205   110.5476    664(10)           660.2908          652.8454
  2206   110.5976    663(10)           659.9941          652.8127
  2207   110.6476    665(10)           660.9149          652.7798
  2208   110.6976    668(10)           660.7621          652.7468
  2209   110.7476    678(10)           660.6559          652.7136
  2210   110.7976    669(10)           660.5969          652.6804
  2211   110.8476    673(10)           660.5862          652.6470
  2212   110.8976    668(10)           660.6259          652.6135
  2213   110.9476    658(10)           660.7188          652.5798
  2214   110.9976    676(10)           660.8691          652.5460
  2215   111.0476    669(10)           661.0844          652.5120
  2216   111.0976    665(10)           661.3621          652.4780
  2217   111.1476    670(10)           658.6099          652.4438
  2218   111.1976    668(10)           659.2576          652.4094
  2219   111.2476    655(10)           660.0619          652.3750
  2220   111.2976    668(10)           661.1070          652.3404
  2221   111.3476    655(10)           662.5517          652.3057
  2222   111.3976    664(10)           664.6797          652.2708
  2223   111.4476    669(11)           667.9475          652.2358
  2224   111.4976    694(11)           673.0038          652.2006
  2225   111.5476    705(11)           680.6425          652.1653
  2226   111.5976    702(11)           691.6962          652.1299
  2227   111.6476    715(11)           706.9390          652.0944
  2228   111.6976    734(11)           726.6883          652.0587
  2229   111.7476    758(11)           750.6442          652.0228
  2230   111.7976    781(11)           777.5889          651.9868
  2231   111.8476    801(12)           806.3450          651.9507
  2232   111.8976    825(12)           835.8060          651.9145
  2233   111.9476    852(12)           861.6904          651.8781
  2234   111.9976    871(12)           875.6764          651.8416
  2235   112.0476    864(12)           869.4092          651.8049
  2236   112.0976    845(12)           843.4805          651.7681
  2237   112.1476    821(12)           807.3728          651.7311
  2238   112.1976    795(11)           771.1027          651.6940
  2239   112.2476    768(11)           741.0675          651.6568
  2240   112.2976    753(11)           720.3257          651.6194
  2241   112.3476    724(11)           709.8449          651.5819
  2242   112.3976    732(11)           710.0367          651.5443
  2243   112.4476    730(11)           722.1293          651.5065
  2244   112.4976    745(11)           748.6888          651.4686
  2245   112.5476    802(11)           792.7779          651.4305
  2246   112.5976    851(12)           855.7691          651.3922
  2247   112.6476    910(12)           934.6398          651.3539
  2248   112.6976    998(13)          1018.7484          651.3154
  2249   112.7476    1082(13)          1088.7166          651.2767
  2250   112.7976    1114(14)          1119.9204          651.2379
  2251   112.8476    1105(13)          1097.8016          651.1989
  2252   112.8976    1037(13)          1032.3812          651.1599
  2253   112.9476    952(13)           948.1493          651.1206
  2254   112.9976    876(12)           865.9902          651.0812
  2255   113.0476    822(11)           797.9172          651.0417
  2256   113.0976    789(11)           748.0142          651.0020
  2257   113.1476    753(11)           714.9322          650.9622
  2258   113.1976    735(11)           694.6800          650.9222
  2259   113.2476    735(11)           682.8757          650.8821
  2260   113.2976    711(11)           676.0652          650.8418
  2261   113.3476    704(11)           672.0373          650.8014
  2262   113.3976    695(11)           669.6088          650.7608
  2263   113.4476    698(11)           668.2695          650.7201
  2264   113.4976    686(11)           667.8820          650.6792
  2265   113.5476    685(11)           668.4843          650.6382
  2266   113.5976    685(11)           670.1572          650.5970
  2267   113.6476    678(11)           672.9367          650.5557
  2268   113.6976    684(11)           677.9617          650.5142
  2269   113.7476    694(11)           682.5812          650.4726
  2270   113.7976    700(11)           687.5287          650.4308
  2271   113.8476    714(11)           692.5549          650.3889
  2272   113.8976    701(11)           697.7684          650.3468
  2273   113.9476    697(11)           702.9368          650.3046
  2274   113.9976    699(11)           706.9368          650.2622
  2275   114.0476    710(11)           707.7161          650.2197
  2276   114.0976    719(11)           704.0300          650.1769
  2277   114.1476    701(11)           696.8306          650.1341
  2278   114.1976    700(11)           687.8276          650.0911
  2279   114.2476    688(11)           679.8769          650.0480
  2280   114.2976    673(11)           673.5812          650.0046
  2281   114.3476    669(11)           669.4174          649.9612
  2282   114.3976    669(11)           667.4980          649.9175
  2283   114.4476    675(11)           667.8828          649.8738
  2284   114.4976    683(11)           670.8161          649.8298
  2285   114.5476    693(11)           676.7788          649.7857
  2286   114.5976    694(11)           686.2780          649.7415
  2287   114.6476    713(11)           699.4243          649.6970
  2288   114.6976    727(11)           715.4076          649.6525
  2289   114.7476    749(11)           732.0571          649.6077
  2290   114.7976    773(11)           745.6265          649.5629
  2291   114.8476    776(11)           751.7704          649.5178
  2292   114.8976    763(11)           748.5394          649.4726
  2293   114.9476    748(11)           738.1118          649.4272
  2294   114.9976    746(11)           724.3618          649.3817
  2295   115.0476    740(11)           712.4908          649.3360
  2296   115.0976    714(11)           703.0483          649.2901
  2297   115.1476    701(11)           695.9193          649.2441
  2298   115.1976    700(11)           690.2805          649.1979
  2299   115.2476    706(11)           685.7018          649.1516
  2300   115.2976    683(11)           682.3624          649.1050
  2301   115.3476    692(11)           680.6921          649.0584
  2302   115.3976    696(11)           681.3320          649.0115
  2303   115.4476    706(11)           685.3822          648.9645
  2304   115.4976    703(11)           694.7508          648.9174
  2305   115.5476    706(11)           712.4277          648.8701
  2306   115.5976    732(11)           742.3406          648.8226
  2307   115.6476    777(11)           788.4169          648.7749
  2308   115.6976    828(12)           853.0767          648.7271
  2309   115.7476    914(12)           933.1909          648.6790
  2310   115.7976    984(13)          1020.2158          648.6309
  2311   115.8476    1056(13)          1096.9213          648.5825
  2312   115.8976    1117(14)          1139.7643          648.5341
  2313   115.9476    1127(14)          1131.7781          648.4854
  2314   115.9976    1076(13)          1078.5594          648.4365
  2315   116.0476    1014(13)          1001.8929          648.3875
  2316   116.0976    932(12)           922.1246          648.3383
  2317   116.1476    864(12)           851.0275          648.2890
  2318   116.1976    807(11)           793.4623          648.2394
  2319   116.2476    761(11)           750.1094          648.1898
  2320   116.2976    722(11)           719.6166          648.1399
  2321   116.3476    720(11)           699.0250          648.0898
  2322   116.3976    701(11)           685.4188          648.0397
  2323   116.4476    684(11)           676.4755          647.9893
  2324   116.4976    678(11)           670.5549          647.9387
  2325   116.5476    675(11)           666.5630          647.8880
  2326   116.5976    671(10)           663.7869          647.8371
  2327   116.6476    669(10)           661.7745          647.7860
  2328   116.6976    657(10)           660.2526          647.7347
  2329   116.7476    652(10)           659.0601          647.6833
  2330   116.7976    656(10)           658.1052          647.6317
  2331   116.8476    654(10)           657.3337          647.5799
  2332   116.8976    663(10)           656.7126          647.5280
  2333   116.9476    670(10)           656.2206          647.4758
  2334   116.9976    648(10)           655.8543          647.4235
  2335   117.0476    652(10)           655.4509          647.3710
  2336   117.0976    662(10)           655.1937          647.3183
  2337   117.1476    650(10)           655.1338          647.2654
  2338   117.1976    670(10)           655.1762          647.2124
  2339   117.2476    658(10)           655.3309          647.1592
  2340   117.2976    670(10)           655.6197          647.1058
  2341   117.3476    659(10)           656.0844          647.0522
  2342   117.3976    664(10)           656.7653          646.9985
  2343   117.4476    664(10)           657.9163          646.9445
  2344   117.4976    666(10)           659.8195          646.8904
  2345   117.5476    659(10)           663.0637          646.8361
  2346   117.5976    672(11)           668.5918          646.7816
  2347   117.6476    662(11)           677.6970          646.7269
  2348   117.6976    681(11)           691.7946          646.6721
  2349   117.7476    706(11)           711.9335          646.6171
  2350   117.7976    726(11)           738.0750          646.5618
  2351   117.8476    753(11)           768.3689          646.5064
  2352   117.8976    782(11)           798.5626          646.4508
  2353   117.9476    821(12)           821.8402          646.3950
  2354   117.9976    824(12)           831.0613          646.3391
  2355   118.0476    805(12)           824.2114          646.2829
  2356   118.0976    810(12)           806.3940          646.2265
  2357   118.1476    790(11)           784.6605          646.1700
  2358   118.1976    766(11)           762.3552          646.1133
  2359   118.2476    750(11)           743.0492          646.0563
  2360   118.2976    727(11)           725.0865          645.9992
  2361   118.3476    724(11)           708.3649          645.9420
  2362   118.3976    695(11)           693.4520          645.8845
  2363   118.4476    694(11)           681.1031          645.8268
  2364   118.4976    678(11)           671.3924          645.7689
  2365   118.5476    676(10)           664.1719          645.7108
  2366   118.5976    651(10)           659.0831          645.6525
  2367   118.6476    669(10)           655.6508          645.5941
  2368   118.6976    660(10)           653.3924          645.5355
  2369   118.7476    653(10)           651.9005          645.4766
  2370   118.7976    655(10)           650.8851          645.4176
  2371   118.8476    664(10)           650.1679          645.3583
  2372   118.8976    657(10)           649.6746          645.2989
  2373   118.9476    652(10)           649.3386          645.2393
  2374   118.9976    656(10)           649.1760          645.1794
  2375   119.0476    655(10)           649.1993          645.1194
  2376   119.0976    665(10)           649.4116          645.0592
  2377   119.1476    652(10)           649.7869          644.9988
  2378   119.1976    655(10)           650.2576          644.9382
  2379   119.2476    671(10)           650.6780          644.8774
  2380   119.2976    646(10)           650.8675          644.8163
  2381   119.3476    655(10)           650.6671          644.7551
  2382   119.3976    656(10)           650.0753          644.6937
  2383   119.4476    656(10)           649.2467          644.6321
  2384   119.4976    652(10)           648.3613          644.5703
  2385   119.5476    644(10)           647.5463          644.5082
  2386   119.5976    651(10)           646.8671          644.4460
  2387   119.6476    640(10)           646.3398          644.3836
  2388   119.6976    654(10)           645.9483          644.3210
  2389   119.7476    644(10)           645.6606          644.2581
  2390   119.7976    647(10)           645.4440          644.1951
  2391   119.8476    658(10)           645.2720          644.1318
  2392   119.8976    651(10)           645.1752          644.0684
  2393   119.9476    645(10)           645.0485          644.0047
  2394   119.9976    649(10)           644.9326          643.9409
  2395   120.0476    644(10)           644.8242          643.8768
  2396   120.0976    640(10)           644.7220          643.8124
  2397   120.1476    645(10)           644.6252          643.7480
  2398   120.1976    655(10)           644.5330          643.6833
  2399   120.2476    653(10)           644.4452          643.6183
  2400   120.2976    655(10)           643.9449          643.5532
  2401   120.3476    655(10)           643.8828          643.4879
  2402   120.3976    651(10)           643.8237          643.4223
  2403   120.4476    656(10)           643.7681          643.3566
  2404   120.4976    658(10)           643.7164          643.2906
  2405   120.5476    655(10)           643.6694          643.2244
  2406   120.5976    650(10)           643.5180          643.1580
  2407   120.6476    645(10)           643.4900          643.0914
  2408   120.6976    641(10)           643.4762          643.0245
  2409   120.7476    648(10)           643.4858          642.9575
  2410   120.7976    643(10)           643.5363          642.8902
  2411   120.8476    635(10)           643.6562          642.8227
  2412   120.8976    652(10)           643.8860          642.7550
  2413   120.9476    644(10)           644.2741          642.6871
  2414   120.9976    644(10)           644.9035          642.6190
  2415   121.0476    652(10)           645.7190          642.5506
  2416   121.0976    647(10)           646.7313          642.4821
  2417   121.1476    646(10)           647.8469          642.4132
  2418   121.1976    656(10)           648.8887          642.3442
  2419   121.2476    660(10)           649.6094          642.2750
  2420   121.2976    656(10)           649.7978          642.2055
  2421   121.3476    654(10)           649.4658          642.1359
  2422   121.3976    646(10)           648.8018          642.0659
  2423   121.4476    647(10)           648.0536          641.9958
  2424   121.4976    641(10)           647.3571          641.9254
  2425   121.5476    650(10)           646.7323          641.8549
  2426   121.5976    637(10)           646.1292          641.7841
  2427   121.6476    642(10)           645.5142          641.7130
  2428   121.6976    638(10)           644.9070          641.6418
  2429   121.7476    649(10)           644.3893          641.5703
  2430   121.7976    649(10)           644.0104          641.4986
  2431   121.8476    661(10)           643.8302          641.4266
  2432   121.8976    653(10)           643.9205          641.3545
  2433   121.9476    651(10)           644.3735          641.2821
  2434   121.9976    653(10)           645.3000          641.2095
  2435   122.0476    651(10)           646.8056          641.1366
  2436   122.0976    657(10)           648.9467          641.0635
  2437   122.1476    652(10)           651.6623          640.9902
  2438   122.1976    666(10)           654.7227          640.9166
  2439   122.2476    666(10)           657.6724          640.8428
  2440   122.2976    664(10)           659.8264          640.7688
  2441   122.3476    660(10)           660.4698          640.6946
  2442   122.3976    665(10)           659.3115          640.6201
  2443   122.4476    655(10)           656.7750          640.5453
  2444   122.4976    650(10)           653.6055          640.4704
  2445   122.5476    657(10)           650.4417          640.3951
  2446   122.5976    650(10)           647.6830          640.3198
  2447   122.6476    647(10)           645.5094          640.2441
  2448   122.6976    653(10)           643.9378          640.1682
  2449   122.7476    654(10)           642.8819          640.0920
  2450   122.7976    646(10)           642.2168          640.0156
  2451   122.8476    639(10)           641.8262          639.9390
  2452   122.8976    645(10)           641.6288          639.8621
  2453   122.9476    643(10)           641.5890          639.7850
  2454   122.9976    663(10)           641.7167          639.7076
  2455   123.0476    661(10)           642.0627          639.6300
  2456   123.0976    658(10)           642.7091          639.5522
  2457   123.1476    666(10)           643.7479          639.4741
  2458   123.1976    671(10)           645.2471          639.3958
  2459   123.2476    663(10)           647.2074          639.3171
  2460   123.2976    663(10)           649.5203          639.2383
  2461   123.3476    659(10)           651.9197          639.1593
  2462   123.3976    669(10)           653.9802          639.0800
  2463   123.4476    658(10)           655.1702          639.0004
  2464   123.4976    642(10)           655.1425          638.9206
  2465   123.5476    656(10)           654.0017          638.8405
  2466   123.5976    646(10)           652.2569          638.7602
  2467   123.6476    647(10)           650.4130          638.6796
  2468   123.6976    661(10)           648.7626          638.5988
  2469   123.7476    654(10)           647.4243          638.5177
  2470   123.7976    653(10)           646.2881          638.4364
  2471   123.8476    664(10)           645.1953          638.3549
  2472   123.8976    669(10)           644.0650          638.2730
  2473   123.9476    653(10)           642.9326          638.1909
  2474   123.9976    659(10)           641.8734          638.1086
  2475   124.0476    645(10)           640.9411          638.0260
  2476   124.0976    641(10)           640.1791          637.9431
  2477   124.1476    642(10)           639.5877          637.8600
  2478   124.1976    632(10)           639.1542          637.7767
  2479   124.2476    639(10)           638.8554          637.6931
  2480   124.2976    632(10)           638.6665          637.6091
  2481   124.3476    641(10)           638.5680          637.5250
  2482   124.3976    627(10)           638.5470          637.4406
  2483   124.4476    625(10)           638.5962          637.3560
  2484   124.4976    625(10)           638.7096          637.2710
  2485   124.5476    644(10)           639.1398          637.1858
  2486   124.5976    627(10)           639.3549          637.1003
  2487   124.6476    626(10)           639.5834          637.0146
  2488   124.6976    626(10)           639.8007          636.9286
  2489   124.7476    633(10)           639.9924          636.8424
  2490   124.7976    623(10)           640.0875          636.7559
  2491   124.8476    627(10)           640.1375          636.6691
  2492   124.8976    628(10)           640.0324          636.5821
  2493   124.9476    625(10)           639.7435          636.4948
  2494   124.9976    627(10)           639.3090          636.4072
  2495   125.0476    614(10)           638.8078          636.3193
  2496   125.0976    618(10)           638.3121          636.2312
  2497   125.1476    624(10)           637.8687          636.1428
  2498   125.1976    641(10)           637.5015          636.0541
  2499   125.2476    637(10)           637.2152          635.9652
  2500   125.2976    627(10)           637.0035          635.8760
  2501   125.3476    638(10)           636.8547          635.7865
  2502   125.3976    637(10)           636.7574          635.6967
  2503   125.4476    632(10)           636.7051          635.6067
  2504   125.4976    628(10)           636.6967          635.5164
  2505   125.5476    630(10)           636.7370          635.4258
  2506   125.5976    620(10)           636.8346          635.3349
  2507   125.6476    613(10)           637.0007          635.2438
  2508   125.6976    617(10)           637.2431          635.1523
  2509   125.7476    614(10)           637.5667          635.0607
  2510   125.7976    619(10)           637.9644          634.9687
  2511   125.8476    618(10)           638.4145          634.8764
  2512   125.8976    608(10)           638.8857          634.7839
  2513   125.9476    631(10)           639.3486          634.6910
  2514   125.9976    641(10)           639.7330          634.5980
  2515   126.0476    629(10)           640.0521          634.5045
  2516   126.0976    635(10)           640.1774          634.4109
  2517   126.1476    615(10)           640.0408          634.3169
  2518   126.1976    613(10)           639.6635          634.2227
  2519   126.2476    627(10)           639.1490          634.1281
  2520   126.2976    635(10)           638.6165          634.0333
  2521   126.3476    639(10)           638.1458          633.9382
  2522   126.3976    632(10)           637.8172          633.8428
  2523   126.4476    633(10)           637.6520          633.7471
  2524   126.4976    631(10)           637.6702          633.6511
  2525   126.5476    617(10)           637.9260          633.5549
  2526   126.5976    627(10)           638.4144          633.4583
  2527   126.6476    632(10)           639.2794          633.3615
  2528   126.6976    638(10)           640.7146          633.2643
  2529   126.7476    617(10)           643.0465          633.1669
  2530   126.7976    640(10)           646.7224          633.0691
  2531   126.8476    638(10)           652.2749          632.9711
  2532   126.8976    646(10)           660.2183          632.8727
  2533   126.9476    652(11)           670.8662          632.7742
  2534   126.9976    677(11)           684.1248          632.6752
  2535   127.0476    689(11)           699.2682          632.5760
  2536   127.0976    711(11)           714.7613          632.4765
  2537   127.1476    731(11)           728.1623          632.3766
  2538   127.1976    735(11)           736.3751          632.2766
  2539   127.2476    741(11)           736.8943          632.1761
  2540   127.2976    716(11)           729.5063          632.0754
  2541   127.3476    696(11)           716.4783          631.9744
  2542   127.3976    687(11)           700.9141          631.8730
  2543   127.4476    661(11)           685.3942          631.7714
  2544   127.4976    641(11)           671.5746          631.6694
  2545   127.5476    641(10)           660.3046          631.5672
  2546   127.5976    648(10)           651.7568          631.4646
  2547   127.6476    643(10)           645.6595          631.3618
  2548   127.6976    638(10)           641.5168          631.2586
  2549   127.7476    629(10)           638.7848          631.1551
  2550   127.7976    626(10)           636.9934          631.0513
  2551   127.8476    627(10)           635.7913          630.9472
  2552   127.8976    642(10)           634.9442          630.8428
  2553   127.9476    621(10)           635.4927          630.7380
  2554   127.9976    622(10)           635.0332          630.6330
  2555   128.0476    628(10)           634.7551          630.5276
  2556   128.0976    625(10)           634.4584          630.4220
  2557   128.1476    631(10)           634.2157          630.3160
  2558   128.1976    623(10)           634.0170          630.2097
  2559   128.2476    629(10)           633.8528          630.1030
  2560   128.2976    618(10)           633.7137          629.9961
  2561   128.3476    623(10)           633.5886          629.8889
  2562   128.3976    618(10)           633.4678          629.7813
  2563   128.4476    613(10)           633.3463          629.6734
  2564   128.4976    619(10)           633.2246          629.5651
  2565   128.5476    620(10)           633.1163          629.4566
  2566   128.5976    633(10)           633.0281          629.3477
  2567   128.6476    628(10)           632.9696          629.2385
  2568   128.6976    626(10)           632.9521          629.1290
  2569   128.7476    605(10)           632.9818          629.0192
  2570   128.7976    617(10)           633.1010          628.9090
  2571   128.8476    621(10)           633.3604          628.7985
  2572   128.8976    625(10)           633.7545          628.6877
  2573   128.9476    624(10)           634.3658          628.5765
  2574   128.9976    622(10)           635.2520          628.4650
  2575   129.0476    632(10)           636.4566          628.3532
  2576   129.0976    638(10)           638.1329          628.2411
  2577   129.1476    609(10)           639.9484          628.1286
  2578   129.1976    626(10)           642.0059          628.0158
  2579   129.2476    630(10)           643.9206          627.9026
  2580   129.2976    645(10)           645.4707          627.7892
  2581   129.3476    642(10)           646.3316          627.6754
  2582   129.3976    640(10)           646.3164          627.5612
  2583   129.4476    629(10)           645.4976          627.4467
  2584   129.4976    623(10)           644.1494          627.3318
  2585   129.5476    623(10)           642.5963          627.2167
  2586   129.5976    619(10)           641.1094          627.1012
  2587   129.6476    638(10)           639.8741          626.9854
  2588   129.6976    633(10)           638.9910          626.8691
  2589   129.7476    610(10)           638.4951          626.7526
  2590   129.7976    614(10)           638.3757          626.6357
  2591   129.8476    617(10)           638.5993          626.5185
  2592   129.8976    617(10)           639.1088          626.4010
  2593   129.9476    625(10)           639.6918          626.2831
  2594   129.9976    625(10)           640.8058          626.1648
  2595   130.0476    626(10)           643.2114          626.0462
  2596   130.0976    630(10)           645.1213          625.9272
  2597   130.1476    639(10)           647.6677          625.8079
  2598   130.1976    626(10)           651.2108          625.6883
  2599   130.2476    639(10)           656.3505          625.5682
  2600   130.2976    642(10)           664.0249          625.4479
  2601   130.3476    654(11)           675.5850          625.3271
  2602   130.3976    687(11)           692.7869          625.2061
  2603   130.4476    713(11)           717.6677          625.0847
  2604   130.4976    735(11)           752.1672          624.9629
  2605   130.5476    779(11)           797.5956          624.8408
  2606   130.5976    838(12)           853.9479          624.7183
  2607   130.6476    886(12)           919.1914          624.5955
  2608   130.6976    974(13)           988.7360          624.4722
  2609   130.7476    1034(13)          1054.8440          624.3487
  2610   130.7976    1098(14)          1106.8344          624.2247
  2611   130.8476    1143(14)          1133.2542          624.1004
  2612   130.8976    1138(14)          1127.0645          623.9758
  2613   130.9476    1100(13)          1090.1384          623.8508
  2614   130.9976    1035(13)          1031.8685          623.7254
  2615   131.0476    971(13)           963.7430          623.5996
  2616   131.0976    895(12)           895.3813          623.4735
  2617   131.1476    822(12)           833.3553          623.3470
  2618   131.1976    762(11)           781.2631          623.2202
  2619   131.2476    731(11)           740.3680          623.0930
  2620   131.2976    700(11)           710.1689          622.9653
  2621   131.3476    668(11)           689.1189          622.8374
  2622   131.3976    651(11)           675.2886          622.7091
  2623   131.4476    649(11)           666.8212          622.5804
  2624   131.4976    651(10)           662.2283          622.4513
  2625   131.5476    649(10)           660.4578          622.3218
  2626   131.5976    652(10)           660.8621          622.1920
  2627   131.6476    659(10)           663.0947          622.0618
  2628   131.6976    644(11)           666.9881          621.9312
  2629   131.7476    653(11)           672.4382          621.8002
  2630   131.7976    656(11)           679.3478          621.6689
  2631   131.8476    687(11)           687.6021          621.5371
  2632   131.8976    684(11)           696.9733          621.4050
  2633   131.9476    686(11)           706.9421          621.2725
  2634   131.9976    718(11)           716.5092          621.1396
  2635   132.0476    720(11)           724.2057          621.0064
  2636   132.0976    718(11)           728.4256          620.8727
  2637   132.1476    729(11)           728.0895          620.7388
  2638   132.1976    717(11)           723.1545          620.6043
  2639   132.2476    715(11)           714.7186          620.4695
  2640   132.2976    702(11)           704.3907          620.3343
  2641   132.3476    672(11)           693.8906          620.1987
  2642   132.3976    687(11)           684.8888          620.0627
  2643   132.4476    669(11)           678.1118          619.9264
  2644   132.4976    652(11)           674.7175          619.7896
  2645   132.5476    673(11)           675.6937          619.6525
  2646   132.5976    672(11)           681.7316          619.5149
  2647   132.6476    676(11)           693.9202          619.3770
  2648   132.6976    699(11)           713.4059          619.2386
  2649   132.7476    711(11)           740.5852          619.0999
  2650   132.7976    743(11)           775.7740          618.9608
  2651   132.8476    786(12)           818.1520          618.8212
  2652   132.8976    833(12)           865.5357          618.6813
  2653   132.9476    887(12)           914.1121          618.5410
  2654   132.9976    933(13)           958.1374          618.4001
  2655   133.0476    972(13)           990.3121          618.2590
  2656   133.0976    983(13)          1003.5508          618.1174
  2657   133.1476    990(13)           994.3429          617.9755
  2658   133.1976    958(13)           964.9709          617.8331
  2659   133.2476    914(12)           922.0188          617.6904
  2660   133.2976    849(12)           872.9330          617.5472
  2661   133.3476    799(12)           823.8077          617.4036
  2662   133.3976    752(11)           778.8340          617.2596
  2663   133.4476    705(11)           740.3843          617.1152
  2664   133.4976    692(11)           709.3955          616.9703
  2665   133.5476    669(11)           685.6698          616.8251
  2666   133.5976    637(11)           668.5322          616.6794
  2667   133.6476    635(10)           656.2431          616.5334
  2668   133.6976    629(10)           647.7430          616.3869
  2669   133.7476    628(10)           641.9081          616.2400
  2670   133.7976    607(10)           636.6976          616.0927
  2671   133.8476    623(10)           633.8431          615.9449
  2672   133.8976    625(10)           631.6443          615.7968
  2673   133.9476    631(10)           630.8323          615.6481
  2674   133.9976    618(10)           629.5582          615.4991
  2675   134.0476    623(10)           628.5131          615.3497
  2676   134.0976    618(10)           627.6525          615.1998
  2677   134.1476    613(10)           626.9442          615.0496
  2678   134.1976    619(10)           626.3655          614.8988
  2679   134.2476    594(10)           625.8982          614.7477
  2680   134.2976    617(10)           625.5247          614.5961
  2681   134.3476    616(10)           625.2260          614.4441
  2682   134.3976    617(10)           624.9806          614.2917
  2683   134.4476    616(10)           624.7653          614.1388
  2684   134.4976    599(10)           624.5605          613.9855
  2685   134.5476    621(10)           624.3572          613.8317
  2686   134.5976    616(10)           624.1627          613.6776
  2687   134.6476    613(10)           623.9955          613.5230
  2688   134.6976    606(10)           623.8788          613.3679
  2689   134.7476    608(10)           623.8364          613.2125
  2690   134.7976    626(10)           623.8672          613.0565
  2691   134.8476    624(10)           624.0521          612.9001
  2692   134.8976    617(10)           625.0937          612.7433
  2693   134.9476    611(10)           625.6948          612.5861
  2694   134.9976    618(10)           626.6164          612.4284
  2695   135.0476    618(10)           627.9940          612.2703
  2696   135.0976    618(10)           630.0180          612.1117
  2697   135.1476    631(10)           632.7999          611.9527
  2698   135.1976    640(10)           637.1689          611.7932
  2699   135.2476    648(10)           642.7737          611.6332
  2700   135.2976    649(10)           650.3473          611.4728
  2701   135.3476    662(10)           660.0771          611.3120
  2702   135.3976    668(11)           672.0940          611.1508
  2703   135.4476    699(11)           686.3246          610.9890
  2704   135.4976    698(11)           702.3873          610.8268
  2705   135.5476    723(11)           719.5236          610.6641
  2706   135.5976    731(11)           736.5455          610.5010
  2707   135.6476    735(11)           751.9214          610.3375
  2708   135.6976    769(11)           764.1529          610.1735
  2709   135.7476    759(11)           772.2481          610.0090
  2710   135.7976    769(11)           775.9692          609.8440
  2711   135.8476    778(11)           775.6334          609.6786
  2712   135.8976    769(11)           771.8107          609.5128
  2713   135.9476    776(11)           765.0660          609.3464
  2714   135.9976    772(11)           755.7786          609.1796
  2715   136.0476    769(11)           744.1951          609.0123
  2716   136.0976    738(11)           730.7559          608.8445
  2717   136.1476    721(11)           716.3077          608.6764
  2718   136.1976    722(11)           700.9881          608.5077
  2719   136.2476    705(11)           687.6702          608.3385
  2720   136.2976    679(11)           676.1336          608.1689
  2721   136.3476    669(11)           666.7458          607.9988
  2722   136.3976    655(10)           659.7947          607.8282
  2723   136.4476    649(10)           655.4113          607.6572
  2724   136.4976    664(10)           653.6802          607.4857
  2725   136.5476    648(10)           654.6753          607.3137
  2726   136.5976    649(10)           658.4906          607.1411
  2727   136.6476    668(10)           665.2484          606.9682
  2728   136.6976    670(11)           675.0994          606.7947
  2729   136.7476    678(11)           688.1862          606.6208
  2730   136.7976    697(11)           704.6114          606.4464
  2731   136.8476    703(11)           724.3760          606.2715
  2732   136.8976    734(11)           747.2843          606.0961
  2733   136.9476    772(11)           772.8734          605.9202
  2734   136.9976    777(12)           800.3482          605.7439
  2735   137.0476    799(12)           828.7957          605.5670
  2736   137.0976    837(12)           857.5211          605.3896
  2737   137.1476    876(12)           886.1498          605.2119
  2738   137.1976    899(12)           914.2502          605.0335
  2739   137.2476    917(12)           940.6124          604.8547
  2740   137.2976    950(13)           962.8345          604.6754
  2741   137.3476    970(13)           977.4108          604.4955
  2742   137.3976    988(13)           980.6508          604.3152
  2743   137.4476    991(13)           970.4558          604.1344
  2744   137.4976    959(13)           947.3618          603.9531
  2745   137.5476    930(12)           914.4633          603.7712
  2746   137.5976    872(12)           876.2589          603.5889
  2747   137.6476    839(12)           836.8686          603.4061
  2748   137.6976    816(12)           799.5054          603.2228
  2749   137.7476    781(11)           766.4882          603.0389
  2750   137.7976    752(11)           739.3320          602.8546
  2751   137.8476    732(11)           718.9057          602.6697
  2752   137.8976    694(11)           705.6112          602.4844
  2753   137.9476    700(11)           699.5263          602.2985
  2754   137.9976    703(11)           700.5607          602.1121
  2755   138.0476    711(11)           708.5124          601.9252
  2756   138.0976    730(11)           723.0775          601.7378
  2757   138.1476    738(11)           743.7819          601.5499
  2758   138.1976    755(11)           769.9003          601.3615
  2759   138.2476    780(12)           800.2858          601.1725
  2760   138.2976    831(12)           833.2494          600.9830
  2761   138.3476    867(12)           866.4198          600.7930
  2762   138.3976    880(12)           896.6948          600.6025
  2763   138.4476    885(12)           920.5591          600.4114
  2764   138.4976    916(12)           934.8710          600.2198
  2765   138.5476    921(12)           938.0665          600.0277
  2766   138.5976    928(12)           930.7226          599.8351
  2767   138.6476    920(12)           914.9479          599.6420
  2768   138.6976    905(12)           893.1589          599.4482
  2769   138.7476    859(12)           867.3147          599.2540
  2770   138.7976    848(12)           838.8434          599.0593
  2771   138.8476    807(12)           809.0087          598.8640
  2772   138.8976    776(11)           779.1824          598.6682
  2773   138.9476    749(11)           750.7113          598.4719
  2774   138.9976    718(11)           724.7005          598.2749
  2775   139.0476    706(11)           701.6166          598.0775
  2776   139.0976    685(11)           682.1168          597.8795
  2777   139.1476    666(10)           665.9489          597.6810
  2778   139.1976    644(10)           652.7523          597.4820
  2779   139.2476    642(10)           642.4006          597.2823
  2780   139.2976    623(10)           634.3915          597.0822
  2781   139.3476    641(10)           628.3336          596.8815
  2782   139.3976    640(10)           623.6989          596.6804
  2783   139.4476    647(10)           620.5132          596.4786
  2784   139.4976    623(10)           618.3494          596.2762
  2785   139.5476    612(10)           617.0062          596.0733
  2786   139.5976    629(10)           616.3280          595.8699
  2787   139.6476    628(10)           616.1910          595.6660
  2788   139.6976    625(10)           616.4879          595.4614
  2789   139.7476    622(10)           617.1129          595.2563
  2790   139.7976    620(10)           617.9482          595.0506
  2791   139.8476    624(10)           618.8555          594.8444
  2792   139.8976    628(10)           619.6710          594.6376
  2793   139.9476    631(10)           620.2153          594.4303
  2794   139.9976    626(10)           620.3173          594.2224
  2795   140.0476    630(10)           619.8597          594.0139
  2796   140.0976    618(10)           618.8253          593.8049
  2797   140.1476    630(10)           617.2941          593.5953
  2798   140.1976    629(10)           615.4266          593.3852
  2799   140.2476    623(10)           613.3999          593.1744
  2800   140.2976    621(10)           611.3727          592.9631
  2801   140.3476    623(10)           609.4720          592.7512
  2802   140.3976    619(10)           607.7943          592.5389
  2803   140.4476    612(10)           606.4094          592.3258
  2804   140.4976    618(10)           606.4425          592.1122
  2805   140.5476    630(10)           605.5867          591.8981
  2806   140.5976    633(10)           605.4243          591.6833
  2807   140.6476    623(10)           605.7720          591.4680
  2808   140.6976    622(10)           606.7128          591.2521
  2809   140.7476    644(10)           608.3506          591.0356
  2810   140.7976    641(10)           610.8070          590.8185
  2811   140.8476    641(10)           614.2090          590.6008
  2812   140.8976    629(10)           618.6689          590.3826
  2813   140.9476    630(10)           623.4748          590.1638
  2814   140.9976    646(10)           630.2260          589.9443
  2815   141.0476    655(10)           638.0377          589.7244
  2816   141.0976    657(10)           646.6897          589.5037
  2817   141.1476    676(10)           655.8203          589.2826
  2818   141.1976    672(10)           664.9095          589.0608
  2819   141.2476    681(11)           673.2570          588.8384
  2820   141.2976    685(11)           680.0267          588.6154
  2821   141.3476    689(11)           684.3625          588.3918
  2822   141.3976    695(11)           685.6031          588.1677
  2823   141.4476    693(11)           683.5145          587.9429
  2824   141.4976    695(11)           678.3820          587.7175
  2825   141.5476    687(11)           670.8988          587.4915
  2826   141.5976    668(10)           663.6014          587.2649
  2827   141.6476    666(10)           654.0044          587.0377
  2828   141.6976    655(10)           644.4200          586.8099
  2829   141.7476    659(10)           635.3557          586.5815
  2830   141.7976    649(10)           627.1506          586.3525
  2831   141.8476    622(10)           619.9976          586.1228
  2832   141.8976    618(10)           613.9687          585.8926
  2833   141.9476    631(10)           609.0341          585.6617
  2834   141.9976    615(10)           605.1013          585.4302
  2835   142.0476    612(10)           602.0359          585.1981
  2836   142.0976    620(10)           599.6873          584.9654
  2837   142.1476    621(10)           597.2374          584.7321
  2838   142.1976    614(10)           595.9114          584.4981
  2839   142.2476    616(10)           594.9102          584.2635
  2840   142.2976    615(10)           594.1466          584.0283
  2841   142.3476    605(10)           593.5557          583.7925
  2842   142.3976    606(10)           593.0915          583.5561
  2843   142.4476    625(10)           592.4917          583.3190
  2844   142.4976    619(10)           592.2040          583.0812
  2845   142.5476    630(10)           591.9797          582.8429
  2846   142.5976    618(10)           591.8124          582.6039
  2847   142.6476    615(10)           591.6998          582.3643
  2848   142.6976    625(10)           591.6412          582.1240
  2849   142.7476    626(10)           591.6376          581.8831
  2850   142.7976    617(10)           591.6896          581.6416
  2851   142.8476    608(10)           591.7972          581.3994
  2852   142.8976    612(10)           591.9586          581.1567
  2853   142.9476    618(10)           592.1699          580.9132
  2854   142.9976    619(10)           593.2257          580.6691
  2855   143.0476    626(10)           593.5305          580.4243
  2856   143.0976    616(10)           593.8565          580.1789
  2857   143.1476    619(10)           594.1874          579.9329
  2858   143.1976    629(10)           595.5969          579.6862
  2859   143.2476    613(10)           595.9064          579.4389
  2860   143.2976    624(10)           596.1797          579.1909
  2861   143.3476    610(10)           596.4129          578.9422
  2862   143.3976    613(10)           596.6229          578.6929
  2863   143.4476    632(10)           596.8331          578.4430
  2864   143.4976    623(10)           597.0699          578.1923
  2865   143.5476    640(10)           597.3605          577.9410
  2866   143.5976    622(10)           597.7305          577.6891
  2867   143.6476    622(10)           598.2047          577.4365
  2868   143.6976    622(10)           598.8095          577.1832
  2869   143.7476    622(10)           599.5687          576.9293
  2870   143.7976    633(10)           600.5299          576.6747
  2871   143.8476    640(10)           601.6998          576.4194
  2872   143.8976    642(10)           603.2169          576.1635
  2873   143.9476    634(10)           605.1370          575.9069
  2874   143.9976    631(10)           607.5867          575.6496
  2875   144.0476    650(10)           610.7377          575.3916
  2876   144.0976    654(10)           614.8162          575.1329
  2877   144.1476    638(10)           620.1082          574.8737
  2878   144.1976    646(10)           626.9688          574.6136
  2879   144.2476    657(10)           636.0062          574.3530
  2880   144.2976    664(10)           647.2833          574.0916
  2881   144.3476    664(10)           661.4660          573.8295
  2882   144.3976    678(11)           678.9936          573.5668
  2883   144.4476    708(11)           700.2430          573.3034
  2884   144.4976    730(11)           725.4346          573.0393
  2885   144.5476    741(11)           754.5845          572.7745
  2886   144.5976    775(11)           787.4364          572.5090
  2887   144.6476    826(12)           823.3814          572.2429
  2888   144.6976    872(12)           864.1202          571.9760
  2889   144.7476    902(12)           902.9005          571.7084
  2890   144.7976    953(12)           940.4323          571.4401
  2891   144.8476    978(13)           974.3262          571.1711
  2892   144.8976    1008(13)          1001.8582          570.9015
  2893   144.9476    1017(13)          1020.3707          570.6310
  2894   144.9976    1033(13)          1027.8253          570.3600
  2895   145.0476    1033(13)          1023.4692          570.0882
  2896   145.0976    1019(13)          1008.1099          569.8157
  2897   145.1476    997(13)           983.8688          569.5425
  2898   145.1976    963(13)           953.5374          569.2686
  2899   145.2476    924(12)           920.0259          568.9940
  2900   145.2976    892(12)           885.9716          568.7186
  2901   145.3476    848(12)           853.5054          568.4426
  2902   145.3976    807(12)           824.5540          568.1658
  2903   145.4476    762(12)           800.7124          567.8884
  2904   145.4976    768(11)           783.0060          567.6101
  2905   145.5476    760(11)           772.3042          567.3312
  2906   145.5976    765(11)           769.2350          567.0515
  2907   145.6476    742(11)           774.2081          566.7712
  2908   145.6976    743(11)           787.4344          566.4901
  2909   145.7476    774(12)           809.0402          566.2083
  2910   145.7976    807(12)           838.5284          565.9257
  2911   145.8476    843(12)           875.5118          565.6424
  2912   145.8976    896(12)           919.1270          565.3585
  2913   145.9476    935(13)           968.1703          565.0737
  2914   145.9976    981(13)          1020.9498          564.7881
  2915   146.0476    1052(13)          1075.2786          564.5020
  2916   146.0976    1114(14)          1128.4108          564.2150
  2917   146.1476    1173(14)          1177.0308          563.9273
  2918   146.1976    1215(14)          1217.4519          563.6389
  2919   146.2476    1229(14)          1245.9199          563.3497
  2920   146.2976    1257(14)          1259.3599          563.0598
  2921   146.3476    1233(14)          1256.1503          562.7690
  2922   146.3976    1224(14)          1236.6259          562.4777
  2923   146.4476    1179(14)          1202.9336          562.1855
  2924   146.4976    1160(14)          1158.4182          561.8926
  2925   146.5476    1080(14)          1106.8062          561.5989
  2926   146.5976    1013(13)          1051.6067          561.3044
  2927   146.6476    966(13)           995.8256          561.0093
  2928   146.6976    902(12)           941.8065          560.7133
  2929   146.7476    829(12)           891.3521          560.4166
  2930   146.7976    793(12)           845.7085          560.1191
  2931   146.8476    763(12)           805.6462          559.8209
  2932   146.8976    736(11)           771.5442          559.5220
  2933   146.9476    717(11)           743.4301          559.2222
  2934   146.9976    697(11)           721.1318          558.9216
  2935   147.0476    700(11)           704.3239          558.6204
  2936   147.0976    689(11)           692.6221          558.3182
  2937   147.1476    681(11)           685.6573          558.0155
  2938   147.1976    694(11)           683.1566          557.7119
  2939   147.2476    707(9)           557.4075          557.4075
_pd_proc_number_of_points   2315

loop_
      _refln_index_h
      _refln_index_k
      _refln_index_l
      _refln_mult
      _pd_refln_phase_id
      _refln_observed_status
      _refln_F_squared_meas
      _refln_F_squared_calc
      _refln_phase_calc
      _refln_d_spacing
   2   1   1 16  1  o          6.7179        9.2512    0.00   2.96439
   3   1   0  8  1  o         65.5470       75.3626  180.00   2.77364
   2   2   1  8  1  o          4.3635        7.4716  180.00   2.55828
   3   0   1  8  1  o         81.4799       94.6649  180.00   2.45595
   3   2   0  8  1  o         59.2096       65.5530    0.00   2.43264
   3   1   1 16  1  o        297.8961      293.9100  180.00   2.36498
   0   0   2  2  1  o       4444.1030     4101.4873    0.00   2.26332
   4   0   0  4  1  o        105.4901       87.0806  180.00   2.19275
   3   2   1 16  1  o         70.1816       69.1753  180.00   2.14282
   4   1   0  8  1  o       6379.2783     6386.4854    0.00   2.12728
   1   1   2  8  1  o        311.2622      311.6124  180.00   2.12617
   3   3   0  4  1  o       6519.2583     6624.4116    0.00   2.06735
   2   0   2  8  1  o       3468.9714     3425.7747    0.00   2.01126
   4   2   0  8  1  o          3.6516        3.6667  180.00   1.96126
   2   1   2 16  1  o       3237.5068     3256.6614    0.00   1.96038
   4   1   1 16  1  o       4829.6445     4881.6895    0.00   1.92528
   3   3   1  8  1  o       4641.8369     4733.2231  180.00   1.88051
   2   2   2  8  1  o       1166.3329     1187.3914  180.00   1.82817
   4   2   1 16  1  o         26.8498       29.6309    0.00   1.79961
   4   3   0  8  1  o          2.5773        2.6746  180.00   1.75420
   3   1   2 16  1  o        705.4101      733.5360    0.00   1.75358
   5   1   0  8  1  o         73.6416       86.8677    0.00   1.72014
   3   2   2 16  1  o        140.1933      143.8573  180.00   1.65704
   4   3   1 16  1  o        169.6690      196.3239    0.00   1.63568
   5   0   1  8  1  o         41.4538       47.9661  180.00   1.63568
   5   2   0  8  1  o          2.7430        3.5339  180.00   1.62874
   5   1   1 16  1  o        135.1093      119.1451    0.00   1.60796
   4   0   2  8  1  o          6.3550        6.3550    0.00   1.57487
   4   4   0  4  1  o         30.1961       32.4839  180.00   1.55051
   4   1   2 16  1  o          2.7263        2.8065  180.00   1.55008
   5   2   1 16  1  o         89.4840       58.6269    0.00   1.53255
   3   3   2  8  1  o          3.0379        1.4753  180.00   1.52643
   5   3   0  8  1  o         70.3811       31.5570  180.00   1.50422
   1   0   3  8  1  o          0.0733        0.0588    0.00   1.48704
   4   2   2 16  1  o         99.2193       81.2946  180.00   1.48219
   4   4   1  8  1  o          1.7455        1.2892  180.00   1.46685
   1   1   3  8  1  o         24.4164       16.9434  180.00   1.46611
   6   0   0  4  1  o        129.9376       69.9472    0.00   1.46184
   6   1   0  8  1  o         18.1685        4.8495  180.00   1.44195
   5   3   1 16  1  o          0.0040        0.0019  180.00   1.42747
   2   1   3 16  1  o          2.2987        2.5619    0.00   1.40828
   6   2   0  8  1  o        248.9535      240.0909  180.00   1.38682
   4   3   2 16  1  o        604.0192      581.2901    0.00   1.38651
   6   1   1 16  1  o         59.9285       55.7314    0.00   1.37392
   5   4   0  8  1  o        270.7665      257.4012  180.00   1.36980
   5   1   2 16  1  o        509.1563      483.8885  180.00   1.36950
   2   2   3  8  1  o         16.4293       26.1211  180.00   1.35679
   3   0   3  8  1  o        123.1685      161.5718  180.00   1.34084
   6   2   1 16  1  o        408.7123      416.6647    0.00   1.32599
   3   1   3 16  1  o        234.6164      237.9487  180.00   1.32544
   5   2   2 16  1  o       1347.3838     1343.4402  180.00   1.32201
   5   4   1 16  1  o        232.2859      247.0417  180.00   1.31109
   6   3   0  8  1  o         28.1637       35.4099    0.00   1.30751
   3   2   3 16  1  o         15.7816       29.4758  180.00   1.28225
   4   4   2  8  1  o         23.4868       47.8855  180.00   1.27914
   6   3   1 16  1  o        108.3694      110.2326  180.00   1.25615
   5   3   2 16  1  o       4505.8877     4454.7568    0.00   1.25277
   5   5   0  4  1  o       6070.3750     6143.7075    0.00   1.24041
   7   1   0  8  1  o         77.7169       78.6557  180.00   1.24041
   4   1   3 16  1  o       4858.2539     4772.3672    0.00   1.23072
   6   0   2  8  1  o       4333.6382     4280.8564  180.00   1.22797
   3   3   3  8  1  o       4736.3848     4743.7256  180.00   1.21878
   6   4   0  8  1  o         10.1560       10.2262    0.00   1.21632
   6   1   2 16  1  o       1845.5302     1860.7321    0.00   1.21611
   7   0   1  8  1  o        489.7410      501.1935    0.00   1.20759
   7   2   0  8  1  o       8583.9521     8539.6816  180.00   1.20479
   5   5   1  8  1  o       3692.1155     3704.0911    0.00   1.19631
   7   1   1 16  1  o          2.3516        2.3592  180.00   1.19631
   4   2   3 16  1  o         68.3513       68.5305    0.00   1.19591
   6   2   2 16  1  o       1128.3853     1099.9658    0.00   1.18249
   6   4   1 16  1  o        245.4777      250.7531  180.00   1.17465
   5   4   2 16  1  o        931.1901      919.1509    0.00   1.17189
   7   2   1 16  1  o       2237.5024     2232.6108    0.00   1.16426
   7   3   0  8  1  o          5.3923        5.3923    0.00   1.15169
   4   3   3 16  1  o        165.0536      215.1637    0.00   1.14393
   5   0   3  8  1  o          9.2795       12.0967  180.00   1.14393
   5   1   3 16  1  o        174.5947      178.1155    0.00   1.13432
   6   3   2 16  1  o         78.5282       78.9004  180.00   1.13217
   0   0   4  2  1  o      23049.0195    23153.6426    0.00   1.13166
   6   5   0  8  1  o        357.7410      454.7767    0.00   1.12301
   7   3   1 16  1  o         41.0381       41.0381  180.00   1.11613
   1   1   4  8  1  o          3.2270        3.2270  180.00   1.11328
   5   2   3 16  1  o         33.1874       33.1874    0.00   1.10689
   8   0   0  4  1  o        111.3558      111.3558  180.00   1.09638
   2   0   4  8  1  o          0.8890        0.8890  180.00   1.09577
   6   5   1 16  1  o          1.9678        1.9678  180.00   1.08997
   7   4   0  8  1  o         49.4419       90.7610    0.00   1.08791
   8   1   0  8  1  o         22.7377       41.7398  180.00   1.08791
   5   5   2  8  1  o        111.3637      202.3435    0.00   1.08776
   7   1   2 16  1  o          3.0755        5.5880  180.00   1.08776
   2   1   4 16  1  o          7.9133       14.9360  180.00   1.08731
   4   4   3  8  1  o         22.3117       22.3117  180.00   1.08136
   6   4   2 16  1  o        124.1313      151.5317    0.00   1.07141
   5   3   3 16  1  o          0.4189        0.3904  180.00   1.06529
   8   2   0  8  1  o       7397.3638     7372.2710    0.00   1.06364
   7   2   2 16  1  o        726.4836      728.0012  180.00   1.06350
   2   2   4  8  1  o         15.6091       15.8938    0.00   1.06308
   7   4   1 16  1  o          0.7701        0.8515  180.00   1.05779
   8   1   1 16  1  o         49.8793       55.1490  180.00   1.05779
   3   1   4 16  1  o         41.5882       56.6268  180.00   1.04780
   6   1   3 16  1  o         54.7649       72.4244    0.00   1.04247
   8   2   1 16  1  o       2350.9683     2325.6667    0.00   1.03544
   6   6   0  4  1  o       5951.0098     5983.2915    0.00   1.03367
   8   3   0  8  1  o         33.0180       34.1437    0.00   1.02657
   7   3   2 16  1  o        131.8889      136.9352  180.00   1.02644
   3   2   4 16  1  o         44.8304       47.1800    0.00   1.02607
   6   2   3 16  1  o        332.9102      330.4162    0.00   1.02106
   7   5   0  8  1  o          0.6011        0.6040    0.00   1.01961
   5   4   3 16  1  o        277.6415      250.4585  180.00   1.01421
   6   6   1  8  1  o       3494.1260     3411.4946  180.00   1.00773
   6   5   2 16  1  o         19.1729       18.9468  180.00   1.00599
   4   0   4  8  1  o         55.0386       54.1739  180.00   1.00563
   8   3   1 16  1  o          0.0184        0.0176  180.00   1.00115
   4   1   4 16  1  o       6122.0781     6054.5679    0.00   0.99909
   7   5   1 16  1  o        298.2736      289.6200    0.00   0.99469
   3   3   4  8  1  o       6227.6362     6183.2070    0.00   0.99267
   6   3   3 16  1  o        183.7465      178.3695  180.00   0.98813
   8   0   2  8  1  o       5520.8970     5436.0708    0.00   0.98671
   8   4   0  8  1  o         52.7298       51.8368    0.00   0.98063
   7   4   2 16  1  o       5824.2207     5724.7305  180.00   0.98052
   8   1   2 16  1  o        184.0757      180.9313    0.00   0.98052
   4   2   4 16  1  o          0.1520        0.1491  180.00   0.98019
   9   1   0  8  1  o          0.3120        0.2282    0.00   0.96860
   7   0   3  8  1  o        479.1087      451.1845    0.00   0.96396
   8   2   2 16  1  o        950.0791      913.9895    0.00   0.96264
   8   4   1 16  1  o        374.9218      361.4864    0.00   0.95840
   5   5   3  8  1  o       3704.3420     3546.2869    0.00   0.95819
   7   1   3 16  1  o         26.2476       25.1277  180.00   0.95819
   9   0   1  8  1  o        164.8593      142.4816  180.00   0.95273
   7   6   0  8  1  o        171.9983      159.2392  180.00   0.95135
   9   2   0  8  1  o        274.8128      254.4267    0.00   0.95135
   4   3   4 16  1  o          6.0470        5.5863  180.00   0.95095
   9   1   1 16  1  o        281.7713      253.1215  180.00   0.94716
   6   4   3 16  1  o        200.6720      180.5126  180.00   0.94696
   5   1   4 16  1  o         92.2805       82.3907    0.00   0.94541
   7   2   3 16  1  o       2284.6821     2282.0068    0.00   0.94149
   6   6   2  8  1  o        337.7166      322.6335    0.00   0.94026
   8   3   2 16  1  o          0.2196        0.1806  180.00   0.93490
   7   6   1 16  1  o        375.2622      371.2809    0.00   0.93101
   9   2   1 16  1  o        456.6838      451.8387    0.00   0.93101
   8   5   0  8  1  o         89.5178       82.6322  180.00   0.92973
   7   5   2 16  1  o        196.6301      180.4539    0.00   0.92963
   5   2   4 16  1  o          1.4528        1.3076  180.00   0.92935
   9   3   0  8  1  o         61.1303       41.5711    0.00   0.92455
   7   3   3 16  1  o         42.1604       33.3374  180.00   0.91549
   4   4   4  8  1  o         27.3574       24.0060  180.00   0.91409
   8   5   1 16  1  o        123.8109       98.0033    0.00   0.91072
   9   3   1 16  1  o        105.6220       77.8040    0.00   0.90585
   5   3   4 16  1  o         34.1485       23.2532  180.00   0.90432
   6   5   3 16  1  o          4.0715        4.0715    0.00   0.90088
   1   0   5  8  1  o          1.9868        1.9868  180.00   0.90054
   8   4   2 16  1  o         12.7555       12.7555  180.00   0.89980
   1   1   5  8  1  o         11.3709       11.3709    0.00   0.89583
   6   0   4  8  1  o         39.8517       39.8517    0.00   0.89486
   9   4   0  8  1  o         68.3086       91.6130  180.00   0.89056
   9   1   2 16  1  o        383.7805      514.4101    0.00   0.89048
   6   1   4 16  1  o          1.6810        2.2865  180.00   0.89023
   7   7   0  4  1  o          6.4365        6.4365  180.00   0.88601
   7   4   3 16  1  o          0.1051        1.2555  180.00   0.88246
   8   1   3 16  1  o          5.3193       63.5368  180.00   0.88246
   2   1   5 16  1  o          0.8167        9.3001    0.00   0.88214
   8   6   0  8  1  o        551.9138      585.4609  180.00   0.87710
  10   0   0  4  1  o         26.2682       27.8649    0.00   0.87710
   7   6   2 16  1  o       1130.2061     1196.4470    0.00   0.87702
   9   2   2 16  1  o       1093.1815     1157.2524  180.00   0.87702
   6   2   4 16  1  o        186.4203      196.6623  180.00   0.87679
   9   4   1 16  1  o         51.4305       58.6040    0.00   0.87381
  10   1   0  8  1  o        611.7023      656.6573    0.00   0.87275
   5   4   4 16  1  o        180.4936      192.8418  180.00   0.87244
   7   7   1  8  1  o          9.2567        9.9774  180.00   0.86951
   8   2   3 16  1  o       2027.7316     2187.9272    0.00   0.86935
   2   2   5  8  1  o          0.8021        0.8738  180.00   0.86905
   3   0   5  8  1  o          3.2333       12.5205  180.00   0.86481
   8   6   1 16  1  o        498.3841      507.9818  180.00   0.86109
   3   1   5 16  1  o        262.3831      263.9420  180.00   0.86064
  10   2   0  8  1  o          5.5415        5.4804  180.00   0.86007
   8   5   2 16  1  o        410.2307      405.1221  180.00   0.86000
  10   1   1 16  1  o        584.9435      603.6235  180.00   0.85697
   9   3   2 16  1  o       1994.6637     1999.8409  180.00   0.85589
   6   3   4 16  1  o         19.5563       19.5059    0.00   0.85567
   6   6   3  8  1  o       3434.3335     3444.5706  180.00   0.85276
   9   5   0  8  1  o       1182.5677     1169.3466  180.00   0.85192
   8   3   3 16  1  o         17.2030       14.5836    0.00   0.84876
   3   2   5 16  1  o        111.9394       93.1627  180.00   0.84847
  10   2   1 16  1  o        326.6018      280.8286    0.00   0.84495
   7   5   3 16  1  o        388.7780      334.2119    0.00   0.84481
  10   3   0  8  1  o         56.1295       35.0336  180.00   0.84011
   9   5   1 16  1  o         10.2705        9.1217    0.00   0.83722
   5   5   4  8  1  o       5993.2422     5796.2251    0.00   0.83601
   7   1   4 16  1  o         56.0181       54.1767  180.00   0.83601
   4   1   5 16  1  o       4605.5342     4682.1753    0.00   0.83303

# The following lines are used to test the character set of files sent by
# network email or other means. They are not part of the CIF data set.
# abcdefghijklmnopqrstuvwxyzABCDEFGHIJKLMNOPQRSTUVWXYZ0123456789
# !@#$%^&*()_+{}:"~<>?|\-=[];'`,./



_cell_length_a
8.7710(5)
_cell_length_b
8.7710(5)
_cell_length_c
4.5266(2)
_diffrn_radiation_type
'Constant Wavelength Neutron Diffraction'
_symmetry_space_group_name_Hall
'-P 4n 2n'
_refine_ls_number_restraints
0
_computing_structure_refinement
FULLPROF
_symmetry_space_group_name_H-M
'P 42/m n m'
_cell_angle_gamma
90.00000
_refine_ls_number_reflns
217
_pd_meas_number_of_points
3197
_cell_volume
348.24(3)
_symmetry_cell_setting
Tetragonal
_cell_angle_alpha
90.00000
_refine_ls_number_parameters
31
_cell_angle_beta
90.00000
_pd_proc_wavelength
1.594000
loop_
_symmetry_equiv_pos_as_xyz
x,y,z
-y+1/2,x+1/2,z+1/2
-x,-y,z
y+1/2,-x+1/2,z+1/2
-x+1/2,y+1/2,z+1/2
y,x,z
x+1/2,-y+1/2,z+1/2
-y,-x,z
-x,-y,-z
y+1/2,-x+1/2,-z+1/2
x,y,-z
-y+1/2,x+1/2,-z+1/2
x+1/2,-y+1/2,-z+1/2
-y,-x,-z
-x+1/2,y+1/2,-z+1/2
y,x,-z

loop_
_atom_type_symbol
_atom_type_scat_length_neutron
_atom_type_scat_source
Co 0.24900 V.F._Sears_Neutron_News_3_26_(1992)
CR 0.36350 V.F._Sears_Neutron_News_3_26_(1992)

loop_
_atom_site_type_symbol
_atom_site_label
_atom_site_fract_x
_atom_site_fract_y
_atom_site_fract_z
_atom_site_u_iso_or_equiv
_atom_site_occupancy
_atom_site_symmetry_multiplicity
Co Co01 0.00000 0.00000 0.00000 -0.0026(4) 1.00(4) 2
Co Co03 0.39792(16) 0.39792(16) 0.00000 -0.0026(4) 0.16(3) 4
Co Co07 0.7404(2) 0.0653(3) 0.00000 -0.0026(4) 0.984(18) 8
Co Co15 0.46413(18) 0.12918(16) 0.00000 -0.0026(4) 0.03(2) 8
Co Co23 0.18245(10) 0.18245(10) 0.2536(6) -0.0026(4) 0.051(10) 8
CR CR01 0.00000 0.00000 0.00000 0.00289(19) 0.08(4) 2
CR CR03 0.39792(16) 0.39792(16) 0.00000 0.00289(19) 0.93(3) 4
CR CR07 0.7404(2) 0.0653(3) 0.00000 0.00289(19) 0.099(18) 8
CR CR15 0.46413(18) 0.12918(16) 0.00000 0.00289(19) 1.05(2) 8
CR CR23 0.18245(10) 0.18245(10) 0.2536(6) 0.00289(19) 1.04(9) 8

loop_
_geom_bond_atom_site_label_1
_geom_bond_atom_site_label_2
_geom_bond_site_symmetry_1
_geom_bond_site_symmetry_2
_geom_bond_distance
_geom_bond_publ_flag
? ? ? ? ? ?

loop_
_geom_contact_atom_site_label_1
_geom_contact_atom_site_label_2
_geom_contact_distance
_geom_contact_site_symmetry_1
_geom_contact_site_symmetry_2
_geom_contact_publ_flag
? ? ? ? ? ?

loop_
_geom_angle_atom_site_label_1
_geom_angle_atom_site_label_2
_geom_angle_atom_site_label_3
_geom_angle_site_symmetry_1
_geom_angle_site_symmetry_2
_geom_angle_site_symmetry_3
_geom_angle
_geom_angle_publ_flag
? ? ? ? ? ? ? ?

loop_
_geom_torsion_atom_site_label_1
_geom_torsion_atom_site_label_2
_geom_torsion_atom_site_label_3
_geom_torsion_atom_site_label_4
_geom_torsion_site_symmetry_1
_geom_torsion_site_symmetry_2
_geom_torsion_site_symmetry_3
_geom_torsion_site_symmetry_4
_geom_torsion
_geom_torsion_publ_flag
? ? ? ? ? ? ? ? ? ?

loop_
_geom_hbond_atom_site_label_d
_geom_hbond_atom_site_label_h
_geom_hbond_atom_site_label_a
_geom_hbond_site_symmetry_d
_geom_hbond_site_symmetry_h
_geom_hbond_site_symmetry_a
_geom_hbond_distance_dh
_geom_hbond_distance_ha
_geom_hbond_distance_da
_geom_hbond_angle_dha
_geom_hbond_publ_flag
? ? ? ? ? ? ? ? ? ? ?



# powder data simulated using PLATON:

data_Co35LH_simulated_1.5940

_publcif_pd_cifplot 'simulated 2021-03-25'

