data_KAlO2_300
 
_pd_block_id    kalo2_300k
 
loop_
_pd_proc_point_id
_pd_proc_2theta_corrected   
_pd_proc_intensity_total
_pd_calc_intensity_total
_pd_proc_intensity_bkg_calc
 
    66    11.0263    1437(38)  1505.9553     1505.9548              
    67    11.1263    1516(40)  1505.8932     1505.8927              
    68    11.2263    1501(40)  1505.8331     1505.8325              
    69    11.3263    1553(41)  1505.7749     1505.7743              
    70    11.4263    1527(41)  1505.7186     1505.7179              
    71    11.5263    1584(42)  1505.6642     1505.6635              
    72    11.6263    1517(41)  1505.6118     1505.6110              
    73    11.7263    1523(41)  1505.5612     1505.5603              
    74    11.8263    1502(41)  1505.5126     1505.5116              
    75    11.9263    1525(41)  1505.4657     1505.4647              
    76    12.0263    1467(40)  1505.4208     1505.4197              
    77    12.1263    1478(41)  1505.3778     1505.3766              
    78    12.2263    1543(41)  1505.3370     1505.3356              
    79    12.3263    1546(41)  1505.2977     1505.2961              
    80    12.4263    1481(40)  1505.2607     1505.2589              
    81    12.5263    1484(40)  1505.2253     1505.2233              
    82    12.6263    1573(41)  1505.1923     1505.1897              
    83    12.7263    1506(40)  1505.1609     1505.1578              
    84    12.8263    1424(39)  1505.1320     1505.1281              
    85    12.9263    1556(40)  1505.1050     1505.1000              
    86    13.0263    1449(39)  1505.0804     1505.0739              
    87    13.1263    1475(39)  1505.0586     1505.0494              
    88    13.2263    1439(39)  1505.0408     1505.0271              
    89    13.3263    1540(40)  1505.0291     1505.0065              
    90    13.4263    1424(38)  1505.0272     1504.9877              
    91    13.5263    1442(38)  1505.0383     1504.9707              
    92    13.6263    1528(40)  1505.0620     1504.9557              
    93    13.7263    1523(39)  1505.0942     1504.9425              
    94    13.8263    1544(40)  1505.1294     1504.9312              
    95    13.9263    1441(38)  1505.1588     1504.9213              
    96    14.0263    1453(38)  1505.1661     1504.9137              
    97    14.1263    1447(38)  1505.1346     1504.9077              
    98    14.2263    1470(38)  1505.0720     1504.9037              
    99    14.3263    1469(39)  1505.0034     1504.9012              
   100    14.4263    1533(40)  1504.9519     1504.9008              
   101    14.5263    1519(39)  1504.9242     1504.9022              
   102    14.6263    1459(39)  1504.9143     1504.9053              
   103    14.7263    1459(39)  1504.9146     1504.9103              
   104    14.8263    1456(38)  1504.9198     1504.9170              
   105    14.9263    1510(39)  1504.9290     1504.9257              
   106    15.0263    1501(39)  1504.9391     1504.9359              
   107    15.1263    1549(40)  1504.9514     1504.9481              
   108    15.2263    1495(39)  1504.9653     1504.9620              
   109    15.3263    1498(39)  1504.9810     1504.9778              
   110    15.4263    1465(39)  1504.9983     1504.9952              
   111    15.5263    1549(40)  1505.0175     1505.0145              
   112    15.6263    1473(39)  1505.0385     1505.0355              
   113    15.7263    1565(40)  1505.0612     1505.0583              
   114    15.8263    1529(40)  1505.0856     1505.0829              
   115    15.9263    1578(41)  1505.1118     1505.1093              
   116    16.0263    1513(40)  1505.1399     1505.1373              
   117    16.1263    1537(40)  1505.1892     1505.1671              
   118    16.2263    1440(39)  1505.2217     1505.1987              
   119    16.3263    1479(39)  1505.2560     1505.2322              
   120    16.4263    1480(39)  1505.2922     1505.2675              
   121    16.5263    1479(39)  1505.3300     1505.3042              
   122    16.6263    1494(40)  1505.3698     1505.3429              
   123    16.7263    1571(40)  1505.4113     1505.3832              
   124    16.8263    1497(40)  1505.4546     1505.4253              
   125    16.9263    1436(39)  1505.4998     1505.4690              
   126    17.0263    1486(40)  1505.5469     1505.5146              
   127    17.1263    1519(41)  1505.5957     1505.5618              
   128    17.2263    1449(40)  1505.6464     1505.6107              
   129    17.3263    1458(40)  1505.6991     1505.6615              
   130    17.4263    1464(40)  1505.7535     1505.7139              
   131    17.5263    1503(40)  1505.8101     1505.7681              
   132    17.6263    1571(42)  1505.8683     1505.8237              
   133    17.7263    1415(40)  1505.9286     1505.8813              
   134    17.8263    1497(42)  1505.9907     1505.9404              
   135    17.9263    1457(41)  1506.0551     1506.0013              
   136    18.0263    1477(42)  1506.1213     1506.0640              
   137    18.1263    1496(42)  1506.1898     1506.1283              
   138    18.2263    1476(42)  1506.2606     1506.1943              
   139    18.3263    1485(42)  1506.3336     1506.2621              
   140    18.4263    1495(42)  1506.4091     1506.3314              
   141    18.5263    1460(41)  1506.4933     1506.4025              
   142    18.6263    1521(42)  1506.5747     1506.4752              
   143    18.7263    1522(42)  1506.6593     1506.5494              
   144    18.8263    1476(41)  1506.7482     1506.6255              
   145    18.9263    1465(41)  1506.8420     1506.7034              
   146    19.0263    1612(43)  1506.9430     1506.7827              
   147    19.1263    1450(40)  1507.0570     1506.8636              
   148    19.2263    1505(41)  1507.1967     1506.9464              
   149    19.3263    1480(40)  1507.3811     1507.0308              
   150    19.4263    1516(41)  1507.6276     1507.1168              
   151    19.5263    1521(40)  1513.9175     1507.2043              
   152    19.6263    1463(39)  1520.5586     1507.2936              
   153    19.7263    1615(41)  1521.4519     1507.3845              
   154    19.8263    1527(40)  1522.3295     1507.4771              
   155    19.9263    1499(39)  1523.1022     1507.5712              
   156    20.0263    1535(39)  1523.7451     1507.6669              
   157    20.1263    1521(39)  1524.3630     1507.7645              
   158    20.2263    1461(38)  1525.1239     1507.8634              
   159    20.3263    1506(39)  1526.2120     1507.9642              
   160    20.4263    1539(39)  1527.8701     1508.0665              
   161    20.5263    1585(39)  1530.4659     1508.1703              
   162    20.6263    1518(39)  1534.3904     1508.2759              
   163    20.7263    1525(39)  1539.7645     1508.3831              
   164    20.8263    1551(40)  1546.2572     1508.4917              
   165    20.9263    1571(40)  1553.1196     1508.6021              
   166    21.0263    1520(39)  1558.9677     1508.7140              
   167    21.1263    1525(39)  1561.6155     1508.8274              
   168    21.2263    1549(39)  1559.8254     1508.9424              
   169    21.3263    1470(38)  1555.1421     1509.0591              
   170    21.4263    1522(39)  1550.4576     1509.1772              
   171    21.5263    1461(38)  1547.7960     1509.2971              
   172    21.6263    1519(38)  1547.6174     1509.4186              
   173    21.7263    1477(38)  1549.1165     1509.5415              
   174    21.8263    1555(39)  1551.6825     1509.6661              
   175    21.9263    1543(39)  1554.9236     1509.7921              
   176    22.0263    1516(38)  1558.7009     1509.9198              
   177    22.1263    1612(39)  1563.0067     1510.0491              
   178    22.2263    1514(38)  1567.8994     1510.1799              
   179    22.3263    1621(39)  1573.4800     1510.3123              
   180    22.4263    1581(39)  1579.8881     1510.4462              
   181    22.5263    1569(39)  1587.3132     1510.5815              
   182    22.6263    1638(39)  1596.0245     1510.7186              
   183    22.7263    1602(39)  1606.4315     1510.8572              
   184    22.8263    1611(39)  1619.1754     1510.9972              
   185    22.9263    1563(39)  1635.2286     1511.1388              
   186    23.0263    1648(40)  1655.9839     1511.2817              
   187    23.1263    1584(40)  1683.3794     1511.4265              
   188    23.2263    1704(41)  1720.1097     1511.5725              
   189    23.3263    1701(41)  1769.9275     1511.7202              
   190    23.4263    1742(42)  1838.7006     1511.8695              
   191    23.5263    1876(44)  1939.6195     1512.0203              
   192    23.6263    2177(47)  2109.6035     1512.1722              
   193    23.7263    2543(50)  2442.6338     1512.3262              
   194    23.8263    3255(57)  3125.8774     1512.4813              
   195    23.9263    4916(69)  4419.0313     1512.6381              
   196    24.0263    7307(86)  6521.6758     1512.7964              
   197    24.1263    10069(102)  9401.7031     1512.9561                
   198    24.2263    13228(118)     12723.1133     1513.1173                
   199    24.3263    16387(132)     15783.3652     1513.2799                
   200    24.4263    17681(137)     17390.9863     1513.4441                
   201    24.5263    16239(132)     16443.9316     1513.6099                
   202    24.6263    13005(118)     13192.3145     1513.7770                
   203    24.7263    8906(97)  9141.9287     1513.9456              
   204    24.8263    5595(77)  5748.5610     1514.1157              
   205    24.9263    3556(61)  3598.9946     1514.2872              
   206    25.0263    2610(52)  2504.3992     1514.4603              
   207    25.1263    2127(47)  2027.3237     1514.6346              
   208    25.2263    1922(44)  1836.3196     1514.8105              
   209    25.3263    1734(42)  1760.3959     1514.9879              
   210    25.4263    1686(41)  1726.5083     1515.1669              
   211    25.5263    1682(41)  1706.2738     1515.3472              
   212    25.6263    1679(41)  1689.9686     1515.5289              
   213    25.7263    1643(41)  1675.4908     1515.7120              
   214    25.8263    1649(41)  1663.8799     1515.8966              
   215    25.9263    1600(40)  1657.4785     1516.0826              
   216    26.0263    1614(40)  1658.5287     1516.2703              
   217    26.1263    1625(40)  1667.5784     1516.4591              
   218    26.2263    1666(41)  1682.6600     1516.6495              
   219    26.3263    1667(41)  1698.9674     1516.8412              
   220    26.4263    1681(41)  1707.7371     1517.0343              
   221    26.5263    1615(41)  1698.6687     1517.2290              
   222    26.6263    1650(41)  1670.9883     1517.4250              
   223    26.7263    1601(40)  1635.6155     1517.6226              
   224    26.8263    1695(41)  1604.5714     1517.8214              
   225    26.9263    1554(39)  1583.4490     1518.0215              
   226    27.0263    1547(39)  1571.3048     1518.2230              
   227    27.1263    1569(40)  1564.6779     1518.4260              
   228    27.2263    1569(40)  1560.8289     1518.6305              
   229    27.3263    1531(40)  1558.2961     1518.8363              
   230    27.4263    1580(40)  1556.4536     1519.0436              
   231    27.5263    1554(40)  1555.0881     1519.2520              
   232    27.6263    1611(40)  1554.2067     1519.4620              
   233    27.7263    1563(40)  1553.9447     1519.6733              
   234    27.8263    1555(40)  1554.4769     1519.8861              
   235    27.9263    1601(40)  1555.9066     1520.1001              
   236    28.0263    1504(39)  1558.2120     1520.3156              
   237    28.1263    1577(40)  1561.2396     1520.5325              
   238    28.2263    1540(39)  1564.7659     1520.7506              
   239    28.3263    1506(39)  1569.2916     1520.9701              
   240    28.4263    1580(40)  1578.0674     1521.1910              
   241    28.5263    1587(40)  1598.8365     1521.4132              
   242    28.6263    1661(41)  1643.2147     1521.6368              
   243    28.7263    1648(41)  1721.6428     1521.8618              
   244    28.8263    1868(43)  1835.3461     1522.0880              
   245    28.9263    1996(45)  1971.5356     1522.3156              
   246    29.0263    2148(46)  2100.3721     1522.5444              
   247    29.1263    2089(46)  2169.4514     1522.7748              
   248    29.2263    2090(46)  2129.2000     1523.0063              
   249    29.3263    1928(44)  1993.6711     1523.2394              
   250    29.4263    1804(42)  1818.1786     1523.4736              
   251    29.5263    1650(41)  1685.0776     1523.7091              
   252    29.6263    1663(41)  1603.1821     1523.9460              
   253    29.7263    1531(39)  1562.5364     1524.1843              
   254    29.8263    1647(41)  1545.1726     1524.4238              
   255    29.9263    1574(40)  1538.3452     1524.6646              
   256    30.0263    1613(40)  1535.7021     1524.9067              
   257    30.1263    1496(39)  1534.6112     1525.1503              
   258    30.2263    1505(39)  1534.1537     1525.3949              
   259    30.3263    1511(39)  1534.1399     1525.6410              
   260    30.4263    1555(40)  1534.7142     1525.8883              
   261    30.5263    1598(41)  1536.0338     1526.1370              
   262    30.6263    1534(41)  1538.0624     1526.3867              
   263    30.7263    1601(42)  1540.4714     1526.6378              
   264    30.8263    1583(41)  1542.5526     1526.8903              
   265    30.9263    1543(41)  1543.9406     1527.1439              
   266    31.0263    1551(41)  1542.7709     1527.3989              
   267    31.1263    1561(41)  1540.7367     1527.6552              
   268    31.2263    1565(41)  1539.5645     1527.9127              
   269    31.3263    1591(41)  1540.4861     1528.1715              
   270    31.4263    1588(41)  1543.5790     1528.4315              
   271    31.5263    1590(41)  1548.2218     1528.6927              
   272    31.6263    1625(41)  1553.0468     1528.9554              
   273    31.7263    1672(42)  1555.3563     1529.2191              
   274    31.8263    1584(40)  1553.6002     1529.4841              
   275    31.9263    1607(40)  1548.6125     1529.7505              
   276    32.0263    1563(40)  1542.9409     1530.0181              
   277    32.1263    1494(39)  1538.5895     1530.2869              
   278    32.2263    1529(39)  1536.1188     1530.5568              
   279    32.3263    1535(39)  1535.0762     1530.8280              
   280    32.4263    1532(39)  1534.8602     1531.1005              
   281    32.5263    1551(39)  1534.9594     1531.3740              
   282    32.6263    1541(39)  1535.2091     1531.6489              
   283    32.7263    1577(39)  1535.5260     1531.9252              
   284    32.8263    1567(39)  1535.8802     1532.2024              
   285    32.9263    1566(39)  1536.2644     1532.4810              
   286    33.0263    1524(39)  1536.6782     1532.7607              
   287    33.1263    1475(38)  1537.1187     1533.0417              
   288    33.2263    1565(39)  1537.6014     1533.3239              
   289    33.3263    1499(38)  1538.1255     1533.6072              
   290    33.4263    1552(39)  1538.6970     1533.8917              
   291    33.5263    1596(39)  1539.3239     1534.1775              
   292    33.6263    1514(38)  1540.0164     1534.4645              
   293    33.7263    1585(39)  1540.7883     1534.7526              
   294    33.8263    1472(38)  1541.6592     1535.0417              
   295    33.9263    1558(39)  1542.6584     1535.3324              
   296    34.0263    1567(39)  1543.3799     1535.6241              
   297    34.1263    1545(39)  1544.8597     1535.9170              
   298    34.2263    1482(38)  1546.8435     1536.2109              
   299    34.3263    1577(39)  1549.6581     1536.5061              
   300    34.4263    1526(39)  1553.6858     1536.8024              
   301    34.5263    1635(40)  1559.5000     1537.0997              
   302    34.6263    1643(40)  1566.6361     1537.3984              
   303    34.7263    1708(41)  1575.5568     1537.6984              
   304    34.8263    1678(40)  1587.5635     1537.9993              
   305    34.9263    1647(40)  1608.2100     1538.3014              
   306    35.0263    1742(41)  1650.9541     1538.6046              
   307    35.1263    1747(41)  1734.6055     1538.9091              
   308    35.2263    1906(43)  1872.0300     1539.2146              
   309    35.3263    1998(44)  2057.1294     1539.5212              
   310    35.4263    2262(47)  2257.2000     1539.8291              
   311    35.5263    2355(48)  2405.3604     1540.1381              
   312    35.6263    2426(49)  2416.1394     1540.4481              
   313    35.7263    2319(48)  2275.8611     1540.7593              
   314    35.8263    2123(46)  2077.5161     1541.0717              
   315    35.9263    1912(44)  1922.8004     1541.3851              
   316    36.0263    1932(44)  1850.7009     1541.6996              
   317    36.1263    1975(44)  1848.6685     1542.0151              
   318    36.2263    1920(44)  1874.2249     1542.3319              
   319    36.3263    1937(44)  1876.8601     1542.6497              
   320    36.4263    1859(43)  1832.2693     1542.9686              
   321    36.5263    1785(42)  1761.8940     1543.2886              
   322    36.6263    1760(42)  1695.4387     1543.6099              
   323    36.7263    1671(41)  1654.4589     1543.9321              
   324    36.8263    1610(41)  1638.9060     1544.2555              
   325    36.9263    1702(42)  1637.8033     1544.5798              
   326    37.0263    1652(42)  1638.3716     1544.9055              
   327    37.1263    1703(43)  1632.3152     1545.2319              
   328    37.2263    1600(41)  1620.2881     1545.5597              
   329    37.3263    1681(43)  1607.8539     1545.8884              
   330    37.4263    1641(42)  1599.1162     1546.2181              
   331    37.5263    1632(42)  1595.0642     1546.5491              
   332    37.6263    1687(43)  1594.5183     1546.8811              
   333    37.7263    1692(43)  1596.0469     1547.2140              
   334    37.8263    1616(41)  1605.4294     1547.5481              
   335    37.9263    1644(42)  1609.3302     1547.8833              
   336    38.0263    1649(41)  1617.4573     1548.2194              
   337    38.1263    1712(42)  1623.3191     1548.5565              
   338    38.2263    1673(42)  1630.4740     1548.8948              
   339    38.3263    1706(42)  1639.7156     1549.2340              
   340    38.4263    1684(41)  1653.2722     1549.5745              
   341    38.5263    1651(40)  1675.4321     1549.9158              
   342    38.6263    1711(41)  1713.6016     1550.2582              
   343    38.7263    1885(43)  1774.6038     1550.6016              
   344    38.8263    1890(43)  1859.2002     1550.9462              
   345    38.9263    2075(45)  1957.5044     1551.2916              
   346    39.0263    2119(45)  2045.4095     1551.6382              
   347    39.1263    2115(46)  2086.4395     1551.9857              
   348    39.2263    2095(45)  2064.9214     1552.3342              
   349    39.3263    1977(44)  2012.8765     1552.6838              
   350    39.4263    1883(43)  1977.5166     1553.0343              
   351    39.5263    1920(43)  1991.2811     1553.3859              
   352    39.6263    2018(44)  2075.9199     1553.7384              
   353    39.7263    2030(44)  2278.9487     1554.0920              
   354    39.8263    2521(49)  2728.3550     1554.4467              
   355    39.9263    3585(59)  3664.0781     1554.8021              
   356    40.0263    5224(71)  5360.0327     1555.1586              
   357    40.1263    7689(86)  7946.9590     1555.5162              
   358    40.2263    10959(103)     11198.3447     1555.8748                
   359    40.3263    14428(118)     14352.8740     1556.2343                
   360    40.4263    16403(126)     16084.8711     1556.5946                
   361    40.5263    16059(125)     15402.8574     1556.9562                
   362    40.6263    13460(116)     12793.7041     1557.3185                
   363    40.7263    9881(99)  9670.0713     1557.6819              
   364    40.8263    7156(84)  7239.3716     1558.0464              
   365    40.9263    5914(76)  5850.4883     1558.4116              
   366    41.0263    4952(70)  5114.9658     1558.7778              
   367    41.1263    4551(67)  4474.5923     1559.1451              
   368    41.2263    3714(61)  3743.4907     1559.5133              
   369    41.3263    3064(56)  3061.2793     1559.8824              
   370    41.4263    2533(51)  2583.0024     1560.2526              
   371    41.5263    2338(49)  2346.5842     1560.6237              
   372    41.6263    2279(48)  2318.2732     1560.9955              
   373    41.7263    2329(48)  2477.8833     1561.3684              
   374    41.8263    2707(52)  2917.1860     1561.7423              
   375    41.9263    3566(59)  3824.1724     1562.1169              
   376    42.0263    5110(72)  5393.9023     1562.4927              
   377    42.1263    7207(86)  7653.4043     1562.8694              
   378    42.2263    10020(102)     10280.3281     1563.2469                
   379    42.3263    12311(114)     12446.1533     1563.6254                
   380    42.4263    13074(117)     13042.7383     1564.0048                
   381    42.5263    12190(113)     11663.1660     1564.3850                
   382    42.6263    9451(99)  9017.6797     1564.7662              
   383    42.7263    6535(82)  6285.2534     1565.1483              
   384    42.8263    4405(67)  4254.7837     1565.5314              
   385    42.9263    3146(56)  3058.4468     1565.9154              
   386    43.0263    2538(50)  2449.9651     1566.3002              
   387    43.1263    2231(48)  2151.5845     1566.6859              
   388    43.2263    1996(46)  1996.4421     1567.0724              
   389    43.3263    1942(46)  1913.0972     1567.4598              
   390    43.4263    1898(46)  1873.2614     1567.8484              
   391    43.5263    1876(46)  1855.5505     1568.2375              
   392    43.6263    1839(45)  1855.4705     1568.6277              
   393    43.7263    1850(45)  1886.8682     1569.0187              
   394    43.8263    2081(48)  1981.0377     1569.4106              
   395    43.9263    2124(48)  2185.5100     1569.8033              
   396    44.0263    2516(53)  2538.4167     1570.1969              
   397    44.1263    2951(57)  3026.7000     1570.5914              
   398    44.2263    3509(62)  3553.1494     1570.9869              
   399    44.3263    3807(64)  3911.0391     1571.3829              
   400    44.4263    3893(65)  3858.6558     1571.7802              
   401    44.5263    3522(61)  3403.1494     1572.1781              
   402    44.6263    2922(56)  2809.8298     1572.5768              
   403    44.7263    2387(50)  2321.7852     1572.9766              
   404    44.8263    2094(47)  2026.4333     1573.3768              
   405    44.9263    2004(46)  1889.5537     1573.7782              
   406    45.0263    1817(43)  1835.9507     1574.1803              
   407    45.1263    1828(44)  1840.4230     1574.5834              
   408    45.2263    1786(43)  1873.5389     1574.9872              
   409    45.3263    1938(45)  1947.9623     1575.3918              
   410    45.4263    2060(46)  2101.5693     1575.7974              
   411    45.5263    2432(50)  2422.6899     1576.2035              
   412    45.6263    3046(56)  3037.5852     1576.6105              
   413    45.7263    3942(63)  4021.2715     1577.0184              
   414    45.8263    5336(73)  5326.2329     1577.4271              
   415    45.9263    6482(80)  6653.5029     1577.8368              
   416    46.0263    7420(86)  7445.8042     1578.2471              
   417    46.1263    7317(85)  7201.8228     1578.6582              
   418    46.2263    6258(79)  6161.6318     1579.0702              
   419    46.3263    4815(70)  5043.7681     1579.4828              
   420    46.4263    4231(65)  4352.0186     1579.8965              
   421    46.5263    4201(65)  4115.5830     1580.3108              
   422    46.6263    4116(65)  4012.5659     1580.7260              
   423    46.7263    3756(62)  3725.1914     1581.1417              
   424    46.8263    3202(57)  3264.9143     1581.5585              
   425    46.9263    2675(52)  2832.2131     1581.9760              
   426    47.0263    2423(49)  2602.4788     1582.3942              
   427    47.1263    2490(50)  2652.0967     1582.8134              
   428    47.2263    2892(54)  3093.2517     1583.2330              
   429    47.3263    4028(64)  4138.4551     1583.6536              
   430    47.4263    5615(76)  6051.6826     1584.0750              
   431    47.5263    8548(94)  8922.6143     1584.4969              
   432    47.6263    11932(110)     12384.7734     1584.9198                
   433    47.7263    14884(122)     15373.7461     1585.3434                
   434    47.8263    16601(129)     16356.9209     1585.7678                
   435    47.9263    14975(123)     14665.9453     1586.1929                
   436    48.0263    11425(108)     11210.8906     1586.6187                
   437    48.1263    7458(87)  7588.7773     1587.0453              
   438    48.2263    4696(69)  4888.5439     1587.4727              
   439    48.3263    3336(58)  3319.1826     1587.9008              
   440    48.4263    2624(52)  2584.0547     1588.3296              
   441    48.5263    2266(48)  2320.5278     1588.7590              
   442    48.6263    2288(48)  2288.9417     1589.1893              
   443    48.7263    2296(48)  2361.0747     1589.6204              
   444    48.8263    2343(49)  2455.6028     1590.0520              
   445    48.9263    2498(50)  2493.1025     1590.4845              
   446    49.0263    2490(50)  2431.4314     1590.9176              
   447    49.1263    2291(49)  2310.1292     1591.3516              
   448    49.2263    2260(48)  2206.8362     1591.7860              
   449    49.3263    2100(46)  2185.9634     1592.2213              
   450    49.4263    2204(48)  2311.0112     1592.6573              
   451    49.5263    2672(53)  2702.2866     1593.0940              
   452    49.6263    3622(61)  3574.9097     1593.5314              
   453    49.7263    5127(74)  5170.2861     1593.9694              
   454    49.8263    7367(89)  7537.0239     1594.4082              
   455    49.9263    10106(104)     10242.8232     1594.8478                
   456    50.0263    12297(115)     12271.6064     1595.2880                
   457    50.1263    12895(118)     12615.4297     1595.7288                
   458    50.2263    11310(111)     11139.7588     1596.1702                
   459    50.3263    8440(95)  8665.4238     1596.6124              
   460    50.4263    5952(80)  6304.3779     1597.0554              
   461    50.5263    4345(68)  4638.7856     1597.4989              
   462    50.6263    3576(61)  3661.8975     1597.9432              
   463    50.7263    3044(56)  3111.2427     1598.3879              
   464    50.8263    2810(54)  2800.5671     1598.8336              
   465    50.9263    2536(51)  2688.2617     1599.2798              
   466    51.0263    2703(53)  2773.4355     1599.7267              
   467    51.1263    2893(54)  2989.5815     1600.1742              
   468    51.2263    3169(56)  3174.3101     1600.6222              
   469    51.3263    3093(55)  3132.2070     1601.0710              
   470    51.4263    2880(53)  2844.8643     1601.5205              
   471    51.5263    2414(49)  2472.8296     1601.9706              
   472    51.6263    2133(46)  2158.0371     1602.4214              
   473    51.7263    2029(45)  1952.5601     1602.8727              
   474    51.8263    1919(43)  1839.2554     1603.3248              
   475    51.9263    1981(44)  1780.3163     1603.7775              
   476    52.0263    1951(44)  1748.5286     1604.2308              
   477    52.1263    1920(43)  1729.3772     1604.6846              
   478    52.2263    1860(42)  1714.1174     1605.1392              
   479    52.3263    1868(42)  1698.6089     1605.5944              
   480    52.4263    1815(42)  1688.8129     1606.0500              
   481    52.5263    1851(42)  1685.1298     1606.5065              
   482    52.6263    1754(41)  1683.7947     1606.9634              
   483    52.7263    1672(40)  1685.9171     1607.4211              
   484    52.8263    1784(41)  1695.1508     1607.8793              
   485    52.9263    1729(41)  1720.3479     1608.3380              
   486    53.0263    1799(41)  1776.5649     1608.7975              
   487    53.1263    2000(44)  1878.4197     1609.2573              
   488    53.2263    1970(43)  2023.1331     1609.7179              
   489    53.3263    2128(45)  2172.1899     1610.1791              
   490    53.4263    2261(46)  2250.2529     1610.6409              
   491    53.5263    2132(45)  2201.8652     1611.1033              
   492    53.6263    2112(45)  2065.1177     1611.5660              
   493    53.7263    2042(44)  1918.7903     1612.0297              
   494    53.8263    1967(43)  1811.1013     1612.4937              
   495    53.9263    2085(44)  1752.4802     1612.9585              
   496    54.0263    2070(44)  1732.0471     1613.4236              
   497    54.1263    2034(44)  1737.2021     1613.8893              
   498    54.2263    1926(43)  1765.9880     1614.3557              
   499    54.3263    1887(42)  1833.1534     1614.8226              
   500    54.4263    1981(43)  1973.5186     1615.2900              
   501    54.5263    2160(45)  2224.0745     1615.7582              
   502    54.6263    2469(48)  2598.0962     1616.2267              
   503    54.7263    2979(53)  3019.7715     1616.6959              
   504    54.8263    3317(56)  3288.8081     1617.1655              
   505    54.9263    3259(56)  3221.0386     1617.6356              
   506    55.0263    2877(52)  2877.5552     1618.1063              
   507    55.1263    2458(49)  2480.2739     1618.5778              
   508    55.2263    2092(45)  2188.2246     1619.0494              
   509    55.3263    1925(43)  2067.0374     1619.5219              
   510    55.4263    2151(46)  2150.4829     1619.9948              
   511    55.5263    2503(49)  2502.7837     1620.4680              
   512    55.6263    3165(55)  3224.2224     1620.9420              
   513    55.7263    4349(65)  4331.2158     1621.4165              
   514    55.8263    5603(74)  5597.3354     1621.8915              
   515    55.9263    6458(80)  6474.4229     1622.3669              
   516    56.0263    6498(82)  6415.0850     1622.8429              
   517    56.1263    5461(76)  5473.2720     1623.3195              
   518    56.2263    4024(66)  4207.8076     1623.7964              
   519    56.3263    2891(56)  3125.0122     1624.2738              
   520    56.4263    2308(50)  2419.6541     1624.7520              
   521    56.5263    1944(46)  2045.6661     1625.2305              
   522    56.6263    1838(45)  1874.2402     1625.7095              
   523    56.7263    1830(44)  1799.0100     1626.1888              
   524    56.8263    1764(44)  1762.7909     1626.6687              
   525    56.9263    1721(43)  1742.6992     1627.1490              
   526    57.0263    1609(42)  1731.7535     1627.6301              
   527    57.1263    1698(43)  1728.5748     1628.1115              
   528    57.2263    1659(42)  1732.4827     1628.5933              
   529    57.3263    1751(43)  1740.6809     1629.0757              
   530    57.4263    1693(43)  1746.8693     1629.5585              
   531    57.5263    1801(44)  1744.2651     1630.0420              
   532    57.6263    1688(42)  1733.5637     1630.5256              
   533    57.7263    1805(43)  1722.0391     1631.0099              
   534    57.8263    1748(42)  1715.5248     1631.4945              
   535    57.9263    1578(40)  1719.2285     1631.9796              
   536    58.0263    1708(42)  1735.9541     1632.4653              
   537    58.1263    1789(43)  1768.5229     1632.9514              
   538    58.2263    1775(42)  1817.4592     1633.4377              
   539    58.3263    1811(43)  1879.8365     1633.9247              
   540    58.4263    1946(45)  1959.6417     1634.4121              
   541    58.5263    2040(46)  2091.7529     1634.8999              
   542    58.6263    2194(47)  2347.1382     1635.3882              
   543    58.7263    2664(52)  2768.0273     1635.8767              
   544    58.8263    3239(57)  3284.5437     1636.3657              
   545    58.9263    3600(60)  3676.0625     1636.8553              
   546    59.0263    3609(60)  3698.8535     1637.3452              
   547    59.1263    3317(58)  3399.6707     1637.8356              
   548    59.2263    2920(55)  3073.2402     1638.3265              
   549    59.3263    2698(53)  2953.0435     1638.8177              
   550    59.4263    2843(54)  3062.1772     1639.3093              
   551    59.5263    3102(56)  3217.9968     1639.8013              
   552    59.6263    3221(57)  3168.7891     1640.2938              
   553    59.7263    2823(53)  2875.9380     1640.7866              
   554    59.8263    2469(50)  2511.5923     1641.2799              
   555    59.9263    2137(46)  2213.5535     1641.7736              
   556    60.0263    1872(44)  2018.5190     1642.2676              
   557    60.1263    1857(43)  1907.3982     1642.7620              
   558    60.2263    1791(43)  1857.5193     1643.2568              
   559    60.3263    1828(44)  1853.5515     1643.7521              
   560    60.4263    1868(44)  1877.8665     1644.2477              
   561    60.5263    1821(43)  1899.2172     1644.7434              
   562    60.6263    1851(43)  1886.2601     1645.2399              
   563    60.7263    1802(42)  1839.6877     1645.7365              
   564    60.8263    1799(42)  1785.7206     1646.2336              
   565    60.9263    1680(41)  1743.9694     1646.7310              
   566    61.0263    1701(41)  1720.3344     1647.2290              
   567    61.1263    1666(41)  1712.1738     1647.7271              
   568    61.2263    1655(41)  1714.8013     1648.2256              
   569    61.3263    1665(41)  1724.0663     1648.7246              
   570    61.4263    1701(42)  1735.2800     1649.2238              
   571    61.5263    1749(42)  1742.1848     1649.7235              
   572    61.6263    1648(41)  1741.3154     1650.2235              
   573    61.7263    1615(40)  1737.4453     1650.7239              
   574    61.8263    1657(41)  1739.0234     1651.2245              
   575    61.9263    1725(42)  1754.7225     1651.7255              
   576    62.0263    1788(42)  1792.2257     1652.2268              
   577    62.1263    1829(43)  1854.1727     1652.7285              
   578    62.2263    1876(43)  1931.1084     1653.2305              
   579    62.3263    2023(45)  1998.9916     1653.7328              
   580    62.4263    2076(46)  2038.3323     1654.2354              
   581    62.5263    2035(46)  2079.1406     1654.7384              
   582    62.6263    2102(47)  2181.4836     1655.2417              
   583    62.7263    2357(49)  2381.7124     1655.7454              
   584    62.8263    2488(51)  2653.1675     1656.2493              
   585    62.9263    2965(55)  2911.6899     1656.7534              
   586    63.0263    3034(56)  3085.0496     1657.2579              
   587    63.1263    3105(57)  3196.8774     1657.7628              
   588    63.2263    3279(58)  3306.0688     1658.2681              
   589    63.3263    3465(60)  3366.7410     1658.7736              
   590    63.4263    3307(58)  3308.4370     1659.2794              
   591    63.5263    3257(57)  3262.5613     1659.7854              
   592    63.6263    3397(58)  3426.5371     1660.2919              
   593    63.7263    3929(62)  3853.1118     1660.7983              
   594    63.8263    4457(66)  4405.0537     1661.3053              
   595    63.9263    5025(70)  4892.4736     1661.8125              
   596    64.0263    5297(71)  5267.8833     1662.3202              
   597    64.1263    5331(71)  5515.8154     1662.8279              
   598    64.2263    5539(72)  5566.3354     1663.3358              
   599    64.3263    5233(70)  5355.6035     1663.8441              
   600    64.4263    4773(67)  4883.1377     1664.3527              
   601    64.5263    4129(62)  4278.0859     1664.8616              
   602    64.6263    3440(56)  3621.2722     1665.3707              
   603    64.7263    2947(52)  2985.8857     1665.8800              
   604    64.8263    2387(46)  2481.3975     1666.3898              
   605    64.9263    2084(43)  2148.6055     1666.8997              
   606    65.0263    1806(40)  1963.0193     1667.4099              
   607    65.1263    1737(40)  1871.2959     1667.9203              
   608    65.2263    1759(40)  1830.0858     1668.4309              
   609    65.3263    1731(39)  1812.2953     1668.9419              
   610    65.4263    1709(39)  1804.2825     1669.4529              
   611    65.5263    1817(40)  1798.4890     1669.9644              
   612    65.6263    1723(39)  1791.5983     1670.4760              
   613    65.7263    1742(40)  1785.6801     1670.9879              
   614    65.8263    1727(39)  1784.7456     1671.5000              
   615    65.9263    1720(39)  1793.1678     1672.0121              
   616    66.0263    1793(40)  1819.7147     1672.5248              
   617    66.1263    1757(40)  1884.9639     1673.0375              
   618    66.2263    1961(42)  2025.3488     1673.5504              
   619    66.3263    2175(44)  2278.9651     1674.0637              
   620    66.4263    2484(47)  2639.8188     1674.5770              
   621    66.5263    2923(51)  3005.8989     1675.0906              
   622    66.6263    3077(52)  3177.4558     1675.6045              
   623    66.7263    3047(52)  3044.7673     1676.1185              
   624    66.8263    2827(50)  2754.0269     1676.6328              
   625    66.9263    2228(45)  2490.1887     1677.1472              
   626    67.0263    2242(45)  2338.0525     1677.6617              
   627    67.1263    2193(45)  2313.2268     1678.1768              
   628    67.2263    2260(45)  2397.5166     1678.6917              
   629    67.3263    2539(48)  2585.5430     1679.2069              
   630    67.4263    2848(51)  2901.4272     1679.7223              
   631    67.5263    3321(55)  3314.6570     1680.2379              
   632    67.6263    3651(58)  3677.5356     1680.7538              
   633    67.7263    3755(59)  3835.4404     1681.2695              
   634    67.8263    3592(57)  3720.8503     1681.7856              
   635    67.9263    3414(56)  3325.6467     1682.3020              
   636    68.0263    2816(51)  2810.7988     1682.8182              
   637    68.1263    2299(47)  2373.9438     1683.3350              
   638    68.2263    2026(44)  2091.3850     1683.8517              
   639    68.3263    1896(43)  1944.8192     1684.3687              
   640    68.4263    1790(42)  1890.7692     1684.8857              
   641    68.5263    1878(42)  1899.2211     1685.4030              
   642    68.6263    1928(43)  1980.4180     1685.9204              
   643    68.7263    2090(45)  2165.8743     1686.4380              
   644    68.8263    2394(48)  2465.9956     1686.9557              
   645    68.9263    2731(52)  2814.2988     1687.4736              
   646    69.0263    2905(54)  3033.4912     1687.9915              
   647    69.1263    2955(55)  2949.8027     1688.5096              
   648    69.2263    2635(52)  2640.1978     1689.0280              
   649    69.3263    2196(48)  2311.1345     1689.5464              
   650    69.4263    1932(45)  2087.1875     1690.0649              
   651    69.5263    1943(45)  1995.4075     1690.5835              
   652    69.6263    1957(45)  1987.7469     1691.1024              
   653    69.7263    1907(44)  2061.9834     1691.6212              
   654    69.8263    2124(46)  2205.6897     1692.1401              
   655    69.9263    2389(49)  2474.7700     1692.6593              
   656    70.0263    2862(53)  2939.1479     1693.1786              
   657    70.1263    3506(58)  3617.3206     1693.6980              
   658    70.2263    4217(64)  4377.2803     1694.2174              
   659    70.3263    4930(69)  4921.1470     1694.7369              
   660    70.4263    4919(68)  4969.8755     1695.2567              
   661    70.5263    4549(65)  4542.3901     1695.7765              
   662    70.6263    3927(60)  3887.9561     1696.2963              
   663    70.7263    3116(54)  3264.2087     1696.8164              
   664    70.8263    2781(51)  2865.8555     1697.3364              
   665    70.9263    2711(50)  2781.0176     1697.8566              
   666    71.0263    2813(51)  2998.9565     1698.3767              
   667    71.1263    3209(55)  3408.1458     1698.8972              
   668    71.2263    3629(58)  3784.3215     1699.4175              
   669    71.3263    3728(59)  3889.6289     1699.9379              
   670    71.4263    3486(57)  3650.9907     1700.4586              
   671    71.5263    3110(54)  3201.3848     1700.9792              
   672    71.6263    2697(50)  2731.1157     1701.5000              
   673    71.7263    2308(46)  2375.5447     1702.0206              
   674    71.8263    2078(44)  2167.6262     1702.5415              
   675    71.9263    1919(42)  2075.2686     1703.0624              
   676    72.0263    1859(42)  2056.4292     1703.5833              
   677    72.1263    1960(43)  2094.8357     1704.1044              
   678    72.2263    2071(44)  2195.2510     1704.6254              
   679    72.3263    2127(44)  2372.0825     1705.1466              
   680    72.4263    2423(48)  2619.0474     1705.6676              
   681    72.5263    2675(50)  2882.2549     1706.1888              
   682    72.6263    2912(52)  3074.7539     1706.7102              
   683    72.7263    2966(53)  3188.7234     1707.2314              
   684    72.8263    3139(54)  3302.7893     1707.7527              
   685    72.9263    3313(55)  3572.1992     1708.2742              
   686    73.0263    3983(60)  4377.5210     1708.7955              
   687    73.1263    5930(74)  6282.5132     1709.3169              
   688    73.2263    9327(93)  9721.8125     1709.8384              
   689    73.3263    14325(116)     14456.6270     1710.3600                
   690    73.4263    19516(136)     19027.7402     1710.8815                
   691    73.5263    21638(144)     21287.3359     1711.4028                
   692    73.6263    20858(142)     20666.5098     1711.9243                
   693    73.7263    17867(132)     17945.6836     1712.4458                
   694    73.8263    13827(115)     13879.4072     1712.9675                
   695    73.9263    9471(95)  9779.4902     1713.4889              
   696    74.0263    6165(77)  6639.3408     1714.0105              
   697    74.1263    4405(65)  4761.3286     1714.5321              
   698    74.2263    3643(59)  3937.9465     1715.0537              
   699    74.3263    3508(59)  3718.0938     1715.5751              
   700    74.4263    3524(59)  3619.5024     1716.0968              
   701    74.5263    3301(57)  3336.4221     1716.6182              
   702    74.6263    2922(54)  2931.6750     1717.1399              
   703    74.7263    2514(50)  2579.9236     1717.6614              
   704    74.8263    2217(47)  2363.4797     1718.1829              
   705    74.9263    2213(46)  2263.5073     1718.7045              
   706    75.0263    2190(47)  2220.2222     1719.2258              
   707    75.1263    2134(46)  2177.3135     1719.7473              
   708    75.2263    2045(46)  2110.9067     1720.2687              
   709    75.3263    1884(45)  2030.6470     1720.7902              
   710    75.4263    1969(46)  1959.2473     1721.3112              
   711    75.5263    1922(45)  1908.9131     1721.8325              
   712    75.6263    1879(45)  1877.3457     1722.3538              
   713    75.7263    1819(44)  1858.6836     1722.8751              
   714    75.8263    1801(43)  1846.2430     1723.3964              
   715    75.9263    1816(44)  1837.4651     1723.9174              
   716    76.0263    1784(43)  1830.8368     1724.4384              
   717    76.1263    1794(44)  1825.8378     1724.9596              
   718    76.2263    1783(43)  1822.2546     1725.4806              
   719    76.3263    1857(44)  1820.0676     1726.0015              
   720    76.4263    1859(43)  1819.5271     1726.5222              
   721    76.5263    1782(42)  1821.4553     1727.0431              
   722    76.6263    1837(43)  1827.0151     1727.5637              
   723    76.7263    1934(44)  1840.2972     1728.0845              
   724    76.8263    1890(43)  1863.1803     1728.6050              
   725    76.9263    1880(42)  1895.9600     1729.1255              
   726    77.0263    1907(42)  1938.8333     1729.6460              
   727    77.1263    2054(44)  1994.5945     1730.1664              
   728    77.2263    2098(44)  2077.0898     1730.6866              
   729    77.3263    2257(46)  2186.8057     1731.2068              
   730    77.4263    2311(46)  2292.4487     1731.7268              
   731    77.5263    2336(46)  2332.7446     1732.2467              
   732    77.6263    2383(47)  2340.8191     1732.7667              
   733    77.7263    2449(47)  2377.9353     1733.2866              
   734    77.8263    2537(48)  2525.5737     1733.8063              
   735    77.9263    2975(52)  2871.5420     1734.3259              
   736    78.0263    3327(55)  3364.0527     1734.8456              
   737    78.1263    3770(59)  3799.4973     1735.3650              
   738    78.2263    3970(60)  3963.3926     1735.8842              
   739    78.3263    3945(60)  3834.2749     1736.4034              
   740    78.4263    3589(58)  3486.0215     1736.9224              
   741    78.5263    3105(54)  3105.4487     1737.4414              
   742    78.6263    2962(52)  2856.8364     1737.9603              
   743    78.7263    2780(51)  2736.6357     1738.4791              
   744    78.8263    2681(50)  2657.1182     1738.9977              
   745    78.9263    2577(49)  2559.1580     1739.5161              
   746    79.0263    2480(48)  2420.6426     1740.0345              
   747    79.1263    2300(46)  2282.0176     1740.5529              
   748    79.2263    2224(45)  2230.3889     1741.0707              
   749    79.3263    2274(46)  2322.9204     1741.5886              
   750    79.4263    2565(48)  2547.7998     1742.1064              
   751    79.5263    2718(50)  2794.7039     1742.6240              
   752    79.6263    2837(51)  2871.2090     1743.1416              
   753    79.7263    2663(49)  2694.9155     1743.6591              
   754    79.8263    2312(46)  2406.7764     1744.1763              
   755    79.9263    2153(44)  2152.8994     1744.6934              
   756    80.0263    1991(43)  1988.3075     1745.2102              
   757    80.1263    1919(42)  1904.0598     1745.7269              
   758    80.2263    1939(42)  1868.6426     1746.2435              
   759    80.3263    1886(42)  1858.0831     1746.7599              
   760    80.4263    1894(42)  1862.9189     1747.2761              
   761    80.5263    1877(42)  1884.1191     1747.7922              
   762    80.6263    2004(43)  1933.9067     1748.3081              
   763    80.7263    2088(44)  2043.7189     1748.8240              
   764    80.8263    2312(47)  2256.6699     1749.3395              
   765    80.9263    2611(49)  2596.3201     1749.8549              
   766    81.0263    3032(53)  3010.5750     1750.3699              
   767    81.1263    3321(56)  3326.5874     1750.8849              
   768    81.2263    3225(55)  3332.1118     1751.3998              
   769    81.3263    3098(54)  3088.2939     1751.9144              
   770    81.4263    2764(52)  2836.0632     1752.4287              
   771    81.5263    2738(51)  2724.4604     1752.9430              
   772    81.6263    2794(52)  2796.3311     1753.4570              
   773    81.7263    3015(55)  2955.4072     1753.9709              
   774    81.8263    3071(55)  2999.4751     1754.4846              
   775    81.9263    2963(54)  2845.2544     1754.9979              
   776    82.0263    2532(50)  2592.6028     1755.5112              
   777    82.1263    2298(48)  2332.7136     1756.0242              
   778    82.2263    2115(46)  2133.8096     1756.5370              
   779    82.3263    1982(44)  2009.6061     1757.0497              
   780    82.4263    1942(44)  1940.6718     1757.5619              
   781    82.5263    1942(44)  1898.9315     1758.0741              
   782    82.6263    1900(43)  1871.3209     1758.5859              
   783    82.7263    1862(42)  1858.7255     1759.0977              
   784    82.8263    1971(43)  1867.4132     1759.6091              
   785    82.9263    1927(43)  1895.5287     1760.1201              
   786    83.0263    1952(43)  1935.9681     1760.6311              
   787    83.1263    1913(42)  1966.0645     1761.1418              
   788    83.2263    1996(43)  1959.2615     1761.6523              
   789    83.3263    1976(43)  1923.9111     1762.1626              
   790    83.4263    1904(42)  1891.2205     1762.6726              
   791    83.5263    1946(42)  1885.4889     1763.1825              
   792    83.6263    1966(42)  1895.2494     1763.6919              
   793    83.7263    1974(42)  1939.9169     1764.2012              
   794    83.8263    2074(43)  2030.9998     1764.7103              
   795    83.9263    2372(46)  2182.2156     1765.2189              
   796    84.0263    2346(46)  2399.0171     1765.7274              
   797    84.1263    2658(49)  2683.4146     1766.2357              
   798    84.2263    3015(52)  3008.6802     1766.7437              
   799    84.3263    3380(55)  3259.7427     1767.2513              
   800    84.4263    3288(54)  3271.1621     1767.7587              
   801    84.5263    3191(54)  3036.6567     1768.2659              
   802    84.6263    2794(50)  2746.1289     1768.7728              
   803    84.7263    2607(48)  2531.5454     1769.2793              
   804    84.8263    2504(47)  2368.4712     1769.7855              
   805    84.9263    2331(46)  2214.5244     1770.2914              
   806    85.0263    2174(44)  2090.4993     1770.7972              
   807    85.1263    2050(43)  2018.2142     1771.3027              
   808    85.2263    2074(44)  1997.0413     1771.8079              
   809    85.3263    2051(43)  2012.4014     1772.3126              
   810    85.4263    2073(44)  2031.8109     1772.8171              
   811    85.5263    2152(44)  2026.6421     1773.3214              
   812    85.6263    2066(43)  2000.2534     1773.8253              
   813    85.7263    2024(43)  1975.2721     1774.3290              
   814    85.8263    1926(42)  1964.1375     1774.8323              
   815    85.9263    1934(42)  1972.7594     1775.3353              
   816    86.0263    2009(44)  2001.5619     1775.8380              
   817    86.1263    2106(45)  2060.3594     1776.3406              
   818    86.2263    2044(44)  2160.8521     1776.8425              
   819    86.3263    2307(47)  2324.0037     1777.3442              
   820    86.4263    2557(49)  2560.4397     1777.8457              
   821    86.5263    2879(52)  2853.4141     1778.3468              
   822    86.6263    3178(55)  3163.2388     1778.8474              
   823    86.7263    3195(55)  3389.0225     1779.3478              
   824    86.8263    3434(57)  3457.6008     1779.8480              
   825    86.9263    3629(59)  3612.7830     1780.3478              
   826    87.0263    4196(63)  4312.7100     1780.8470              
   827    87.1263    5729(74)  5958.7754     1781.3463              
   828    87.2263    8670(92)  8571.7080     1781.8450              
   829    87.3263    11724(107)     11383.1738     1782.3434                
   830    87.4263    12943(113)     12822.2090     1782.8416                
   831    87.5263    12177(110)     12086.2773     1783.3392                
   832    87.6263    10358(101)     10385.0352     1783.8365                
   833    87.7263    8594(93)  8789.1357     1784.3334              
   834    87.8263    7229(85)  7300.2783     1784.8301              
   835    87.9263    5838(77)  5845.7773     1785.3263              
   836    88.0263    4386(67)  4612.3970     1785.8221              
   837    88.1263    3609(61)  3770.8252     1786.3177              
   838    88.2263    3267(59)  3423.7825     1786.8129              
   839    88.3263    3469(61)  3634.7622     1787.3077              
   840    88.4263    4267(67)  4396.2988     1787.8020              
   841    88.5263    5507(76)  5519.6812     1788.2960              
   842    88.6263    6573(83)  6448.9907     1788.7897              
   843    88.7263    6427(81)  6469.6709     1789.2830              
   844    88.8263    5721(77)  5592.1777     1789.7758              
   845    88.9263    4372(67)  4509.3765     1790.2683              
   846    89.0263    3681(61)  3678.5034     1790.7605              
   847    89.1263    2977(55)  3125.5859     1791.2521              
   848    89.2263    2624(51)  2751.0762     1791.7434              
   849    89.3263    2465(50)  2510.5720     1792.2344              
   850    89.4263    2389(49)  2385.1907     1792.7247              
   851    89.5263    2292(47)  2358.8792     1793.2150              
   852    89.6263    2396(48)  2435.2036     1793.7047              
   853    89.7263    2622(50)  2639.2017     1794.1941              
   854    89.8263    2957(53)  2948.4651     1794.6829              
   855    89.9263    3256(55)  3223.5430     1795.1713              
   856    90.0263    3265(55)  3245.8518     1795.6593              
   857    90.1263    3142(55)  3009.3638     1796.1470              
   858    90.2263    2807(52)  2728.8052     1796.6343              
   859    90.3263    2512(49)  2523.0996     1797.1210              
   860    90.4263    2407(48)  2395.8655     1797.6072              
   861    90.5263    2256(46)  2331.6016     1798.0931              
   862    90.6263    2326(47)  2344.7234     1798.5786              
   863    90.7263    2525(49)  2502.3970     1799.0637              
   864    90.8263    2930(52)  2909.0762     1799.5485              
   865    90.9263    3611(58)  3668.0190     1800.0326              
   866    91.0263    4919(67)  4713.2012     1800.5164              
   867    91.1263    5788(73)  5641.6309     1800.9996              
   868    91.2263    5998(75)  5789.4873     1801.4824              
   869    91.3263    5060(69)  5081.4829     1801.9648              
   870    91.4263    4057(62)  4207.8340     1802.4468              
   871    91.5263    3604(58)  3753.4229     1802.9283              
   872    91.6263    3748(59)  3905.2195     1803.4094              
   873    91.7263    4645(66)  4611.0942     1803.8900              
   874    91.8263    5746(73)  5619.3105     1804.3701              
   875    91.9263    6680(80)  6524.6963     1804.8499              
   876    92.0263    7172(82)  7085.3774     1805.3290              
   877    92.1263    7263(83)  7318.1675     1805.8076              
   878    92.2263    7531(85)  7574.8975     1806.2859              
   879    92.3263    7903(86)  8033.0664     1806.7638              
   880    92.4263    8623(90)  8560.5713     1807.2408              
   881    92.5263    8763(91)  8689.0371     1807.7179              
   882    92.6263    8144(88)  7975.2886     1808.1943              
   883    92.7263    6748(80)  6634.3672     1808.6700              
   884    92.8263    5022(69)  5130.5806     1809.1454              
   885    92.9263    3945(61)  3899.2634     1809.6204              
   886    93.0263    2985(53)  3096.0591     1810.0947              
   887    93.1263    2721(51)  2650.5342     1810.5686              
   888    93.2263    2330(47)  2433.6182     1811.0421              
   889    93.3263    2255(47)  2336.3972     1811.5149              
   890    93.4263    2211(47)  2302.0464     1811.9872              
   891    93.5263    2300(48)  2310.4500     1812.4594              
   892    93.6263    2298(48)  2373.7080     1812.9305              
   893    93.7263    2583(51)  2540.4814     1813.4015              
   894    93.8263    2928(54)  2905.4758     1813.8719              
   895    93.9263    3456(59)  3567.6548     1814.3418              
   896    94.0263    4691(69)  4537.0566     1814.8109              
   897    94.1263    5653(77)  5593.7544     1815.2797              
   898    94.2263    6437(83)  6332.8291     1815.7480              
   899    94.3263    6827(85)  6711.8843     1816.2158              
   900    94.4263    7015(86)  6918.3760     1816.6829              
   901    94.5263    7094(87)  6990.1836     1817.1497              
   902    94.6263    6923(86)  6912.9937     1817.6158              
   903    94.7263    6490(83)  6526.1655     1818.0814              
   904    94.8263    6023(81)  6002.8091     1818.5468              
   905    94.9263    5567(77)  5602.5537     1819.0112              
   906    95.0263    5444(76)  5459.9263     1819.4755              
   907    95.1263    5533(77)  5571.9258     1819.9387              
   908    95.2263    6010(81)  5855.5596     1820.4019              
   909    95.3263    6360(83)  6437.2490     1820.8640              
   910    95.4263    7297(88)  7202.8438     1821.3259              
   911    95.5263    7751(90)  7657.1309     1821.7872              
   912    95.6263    7889(90)  7608.3608     1822.2480              
   913    95.7263    7441(88)  7158.0396     1822.7081              
   914    95.8263    6645(82)  6350.9478     1823.1678              
   915    95.9263    5660(76)  5403.6182     1823.6267              
   916    96.0263    4499(67)  4420.9697     1824.0852              
   917    96.1263    3530(59)  3574.1348     1824.5432              
   918    96.2263    2845(53)  2968.5010     1825.0005              
   919    96.3263    2532(50)  2592.9641     1825.4573              
   920    96.4263    2377(48)  2403.4309     1825.9133              
   921    96.5263    2313(48)  2340.2813     1826.3689              
   922    96.6263    2370(48)  2371.4949     1826.8240              
   923    96.7263    2531(50)  2455.7764     1827.2784              
   924    96.8263    2650(51)  2562.2000     1827.7324              
   925    96.9263    2710(51)  2686.3748     1828.1855              
   926    97.0263    2902(53)  2887.9688     1828.6381              
   927    97.1263    3109(55)  3124.1909     1829.0903              
   928    97.2263    3304(57)  3258.8242     1829.5417              
   929    97.3263    3165(55)  3202.0190     1829.9927              
   930    97.4263    3145(55)  3056.3176     1830.4430              
   931    97.5263    3001(54)  2926.6631     1830.8926              
   932    97.6263    2776(52)  2819.4792     1831.3417              
   933    97.7263    2807(52)  2789.9102     1831.7902              
   934    97.8263    3049(54)  2905.3926     1832.2380              
   935    97.9263    3383(57)  3143.7466     1832.6853              
   936    98.0263    3520(58)  3375.3208     1833.1318              
   937    98.1263    3532(59)  3481.7886     1833.5776              
   938    98.2263    3536(59)  3492.7886     1834.0231              
   939    98.3263    3413(57)  3459.9558     1834.4679              
   940    98.4263    3476(58)  3457.3638     1834.9119              
   941    98.5263    3610(59)  3663.4644     1835.3556              
   942    98.6263    3991(62)  4143.5244     1835.7985              
   943    98.7263    4876(69)  4768.1401     1836.2408              
   944    98.8263    5512(73)  5328.3975     1836.6824              
   945    98.9263    5826(75)  5629.4219     1837.1233              
   946    99.0263    5906(75)  5553.7925     1837.5637              
   947    99.1263    5549(73)  5262.6909     1838.0033              
   948    99.2263    5272(71)  4916.4990     1838.4421              
   949    99.3263    4689(67)  4553.3438     1838.8807              
   950    99.4263    4269(64)  4053.0544     1839.3184              
   951    99.5263    3350(57)  3453.3887     1839.7555              
   952    99.6263    2824(52)  2954.3274     1840.1921              
   953    99.7263    2529(50)  2641.6709     1840.6276              
   954    99.8263    2411(49)  2517.5933     1841.0626              
   955    99.9263    2526(50)  2531.8638     1841.4972              
   956   100.0263    2544(50)  2637.1560     1841.9309              
   957   100.1263    2695(51)  2762.7024     1842.3640              
   958   100.2263    2727(52)  2840.7419     1842.7968              
   959   100.3263    2745(52)  2878.4351     1843.2283              
   960   100.4263    2905(53)  2983.9377     1843.6594              
   961   100.5263    3122(55)  3319.8301     1844.0900              
   962   100.6263    4112(63)  4136.4810     1844.5197              
   963   100.7263    5946(76)  5744.0732     1844.9487              
   964   100.8263    8726(94)  8300.0225     1845.3771              
   965   100.9263    12066(112)     11455.7500     1845.8048                
   966   101.0263    14440(124)     14055.9697     1846.2318                
   967   101.1263    15822(130)     15104.6924     1846.6581                
   968   101.2263    16039(131)     15256.3721     1847.0839                
   969   101.3263    15568(129)     15107.8330     1847.5088                
   970   101.4263    14850(126)     14470.7090     1847.9327                
   971   101.5263    13572(121)     13296.8115     1848.3563                
   972   101.6263    11424(111)     11358.6328     1848.7791                
   973   101.7263    8686(97)  8819.9551     1849.2012              
   974   101.8263    6283(82)  6417.2368     1849.6226              
   975   101.9263    4437(69)  4661.0679     1850.0433              
   976   102.0263    3508(61)  3609.5608     1850.4633              
   977   102.1263    3066(57)  3090.3799     1850.8826              
   978   102.2263    2767(54)  2898.2188     1851.3011              
   979   102.3263    2718(53)  2870.9517     1851.7190              
   980   102.4263    2767(53)  2879.7747     1852.1361              
   981   102.5263    2709(53)  2823.2773     1852.5524              
   982   102.6263    2681(52)  2722.9402     1852.9681              
   983   102.7263    2642(52)  2648.9084     1853.3832              
   984   102.8263    2767(53)  2612.0886     1853.7971              
   985   102.9263    2610(51)  2561.9182     1854.2106              
   986   103.0263    2471(50)  2459.8179     1854.6235              
   987   103.1263    2458(50)  2341.2791     1855.0353              
   988   103.2263    2173(48)  2244.2124     1855.4464              
   989   103.3263    2154(47)  2183.9282     1855.8571              
   990   103.4263    2181(48)  2151.1929     1856.2666              
   991   103.5263    2057(46)  2152.2749     1856.6757              
   992   103.6263    2224(47)  2199.4429     1857.0839              
   993   103.7263    2334(49)  2328.6199     1857.4913              
   994   103.8263    2645(52)  2589.7842     1857.8982              
   995   103.9263    3000(55)  3006.0347     1858.3041              
   996   104.0263    3530(60)  3502.7043     1858.7092              
   997   104.1263    3848(62)  3839.2446     1859.1138              
   998   104.2263    3831(62)  3740.6104     1859.5175              
   999   104.3263    3330(59)  3307.2803     1859.9204              
  1000   104.4263    2803(54)  2855.1260     1860.3226              
  1001   104.5263    2563(51)  2557.4321     1860.7238              
  1002   104.6263    2384(50)  2439.2307     1861.1244              
  1003   104.7263    2470(50)  2444.8491     1861.5243              
  1004   104.8263    2532(51)  2499.5281     1861.9235              
  1005   104.9263    2556(51)  2574.7637     1862.3215              
  1006   105.0263    2699(52)  2709.6299     1862.7190              
  1007   105.1263    2913(54)  2912.2876     1863.1158              
  1008   105.2263    3129(56)  3162.0337     1863.5116              
  1009   105.3263    3356(58)  3354.8330     1863.9065              
  1010   105.4263    3407(59)  3370.8267     1864.3009              
  1011   105.5263    3166(57)  3179.2754     1864.6946              
  1012   105.6263    2884(54)  2911.4458     1865.0870              
  1013   105.7263    2714(52)  2734.1904     1865.4790              
  1014   105.8263    2677(52)  2711.3706     1865.8700              
  1015   105.9263    2807(53)  2807.6594     1866.2603              
  1016   106.0263    3054(55)  2973.0010     1866.6497              
  1017   106.1263    3242(57)  3201.7217     1867.0386              
  1018   106.2263    3299(57)  3451.8091     1867.4265              
  1019   106.3263    3533(60)  3598.2986     1867.8134              
  1020   106.4263    3540(60)  3567.5598     1868.1997              
  1021   106.5263    3468(59)  3405.2131     1868.5850              
  1022   106.6263    3152(57)  3123.1509     1868.9697              
  1023   106.7263    2733(53)  2786.5896     1869.3535              
  1024   106.8263    2564(51)  2513.4814     1869.7362              
  1025   106.9263    2393(49)  2363.7595     1870.1183              
  1026   107.0263    2254(48)  2348.6709     1870.4998              
  1027   107.1263    2455(50)  2457.3584     1870.8800              
  1028   107.2263    2724(53)  2659.6135     1871.2596              
  1029   107.3263    2933(56)  2894.1567     1871.6382              
  1030   107.4263    3073(58)  3079.2358     1872.0164              
  1031   107.5263    3116(58)  3093.3376     1872.3934              
  1032   107.6263    2852(56)  2890.1118     1872.7694              
  1033   107.7263    2673(54)  2607.8215     1873.1449              
  1034   107.8263    2363(50)  2377.8623     1873.5194              
  1035   107.9263    2348(50)  2253.0476     1873.8929              
  1036   108.0263    2344(50)  2233.3220     1874.2659              
  1037   108.1263    2260(49)  2299.5586     1874.6379              
  1038   108.2263    2408(50)  2425.2305     1875.0089              
  1039   108.3263    2534(51)  2572.5103     1875.3792              
  1040   108.4263    2648(52)  2698.6409     1875.7484              
  1041   108.5263    2676(52)  2719.7278     1876.1168              
  1042   108.6263    2659(52)  2601.9619     1876.4845              
  1043   108.7263    2403(49)  2425.9805     1876.8513              
  1044   108.8263    2316(48)  2281.0154     1877.2172              
  1045   108.9263    2225(47)  2211.1768     1877.5822              
  1046   109.0263    2239(47)  2232.9717     1877.9463              
  1047   109.1263    2350(48)  2355.9390     1878.3094              
  1048   109.2263    2617(51)  2579.5266     1878.6718              
  1049   109.3263    2868(53)  2874.2888     1879.0332              
  1050   109.4263    3270(56)  3158.7021     1879.3938              
  1051   109.5263    3293(56)  3343.3862     1879.7535              
  1052   109.6263    3454(58)  3455.8464     1880.1122              
  1053   109.7263    3616(59)  3592.0332     1880.4702              
  1054   109.8263    3686(59)  3753.4170     1880.8271              
  1055   109.9263    3752(60)  3831.8486     1881.1831              
  1056   110.0263    3695(59)  3663.4839     1881.5385              
  1057   110.1263    3347(56)  3258.4636     1881.8929              
  1058   110.2263    2816(52)  2813.1914     1882.2461              
  1059   110.3263    2436(48)  2463.3052     1882.5985              
  1060   110.4263    2268(47)  2242.5984     1882.9501              
  1061   110.5263    2155(45)  2127.4849     1883.3009              
  1062   110.6263    2081(44)  2081.6729     1883.6505              
  1063   110.7263    2134(45)  2072.9758     1883.9994              
  1064   110.8263    2076(44)  2079.5686     1884.3470              
  1065   110.9263    2124(45)  2081.7319     1884.6941              
  1066   111.0263    2022(44)  2070.0674     1885.0400              
  1067   111.1263    1981(44)  2052.7146     1885.3851              
  1068   111.2263    2005(44)  2040.7468     1885.7292              
  1069   111.3263    1993(44)  2039.6178     1886.0726              
  1070   111.4263    2003(44)  2048.5288     1886.4148              
  1071   111.5263    2140(45)  2075.2271     1886.7561              
  1072   111.6263    2097(45)  2132.3650     1887.0967              
  1073   111.7263    2276(47)  2234.8286     1887.4362              
  1074   111.8263    2381(48)  2396.9358     1887.7745              
  1075   111.9263    2574(50)  2626.6931     1888.1124              
  1076   112.0263    2883(53)  2906.5923     1888.4491              
  1077   112.1263    3105(55)  3147.5916     1888.7848              
  1078   112.2263    2994(54)  3210.1631     1889.1194              
  1079   112.3263    2974(54)  3056.0337     1889.4530              
  1080   112.4263    2722(51)  2791.0652     1889.7860              
  1081   112.5263    2504(49)  2537.0371     1890.1179              
  1082   112.6263    2345(48)  2366.5974     1890.4487              
  1083   112.7263    2269(47)  2289.0688     1890.7787              
  1084   112.8263    2202(47)  2276.5962     1891.1077              
  1085   112.9263    2273(48)  2287.7173     1891.4357              
  1086   113.0263    2312(48)  2281.4810     1891.7626              
  1087   113.1263    2288(48)  2245.3569     1892.0886              
  1088   113.2263    2278(48)  2188.1348     1892.4138              
  1089   113.3263    2089(46)  2131.8035     1892.7378              
  1090   113.4263    2036(46)  2094.7439     1893.0609              
  1091   113.5263    2026(46)  2078.5054     1893.3829              
  1092   113.6263    2075(47)  2070.7036     1893.7043              
  1093   113.7263    2114(48)  2055.5269     1894.0243              
  1094   113.8263    1997(46)  2031.3350     1894.3435              
  1095   113.9263    2068(47)  2007.8586     1894.6617              
  1096   114.0263    2035(47)  1991.7229     1894.9788              
  1097   114.1263    2011(47)  1983.6515     1895.2952              
  1098   114.2263    1941(46)  1984.6631     1895.6102              
  1099   114.3263    1869(46)  1993.9280     1895.9246              
  1100   114.4263    2057(48)  2010.9843     1896.2377              
  1101   114.5263    2088(49)  2039.5127     1896.5498              
  1102   114.6263    2120(49)  2075.8193     1896.8608              
  1103   114.7263    2217(50)  2114.4365     1897.1711              
  1104   114.8263    2151(48)  2151.4600     1897.4800              
  1105   114.9263    2183(49)  2198.0168     1897.7883              
  1106   115.0263    2250(49)  2288.1526     1898.0952              
  1107   115.1263    2312(50)  2455.0442     1898.4014              
  1108   115.2263    2738(55)  2701.3228     1898.7064              
  1109   115.3263    3032(57)  2985.9045     1899.0105              
  1110   115.4263    3378(60)  3203.6797     1899.3136              
  1111   115.5263    3454(60)  3248.7744     1899.6155              
  1112   115.6263    3288(58)  3167.9258     1899.9165              
  1113   115.7263    3211(58)  3100.4648     1900.2164              
  1114   115.8263    3361(59)  3111.8345     1900.5154              
  1115   115.9263    3355(59)  3159.7283     1900.8131              
  1116   116.0263    3300(59)  3149.2290     1901.1099              
  1117   116.1263    3295(59)  3077.2344     1901.4055              
  1118   116.2263    3080(57)  3045.7256     1901.7004              
  1119   116.3263    3111(57)  3129.3325     1901.9940              
  1120   116.4263    3157(58)  3344.5894     1902.2865              
  1121   116.5263    3513(61)  3635.4531     1902.5780              
  1122   116.6263    3895(64)  3927.5830     1902.8685              
  1123   116.7263    4279(66)  4220.5986     1903.1580              
  1124   116.8263    4548(69)  4506.0801     1903.4464              
  1125   116.9263    4675(69)  4637.6152     1903.7336              
  1126   117.0263    4332(67)  4468.6455     1904.0201              
  1127   117.1263    4037(65)  4090.2979     1904.3053              
  1128   117.2263    3693(62)  3701.1409     1904.5894              
  1129   117.3263    3336(59)  3393.4746     1904.8724              
  1130   117.4263    3115(57)  3144.7595     1905.1545              
  1131   117.5263    2820(54)  2909.6362     1905.4354              
  1132   117.6263    2646(52)  2695.4146     1905.7152              
  1133   117.7263    2520(51)  2528.5955     1905.9940              
  1134   117.8263    2420(50)  2413.8831     1906.2717              
  1135   117.9263    2341(49)  2332.4048     1906.5485              
  1136   118.0263    2173(48)  2266.8672     1906.8239              
  1137   118.1263    2201(48)  2218.4700     1907.0981              
  1138   118.2263    2194(48)  2192.5901     1907.3716              
  1139   118.3263    2267(49)  2187.2700     1907.6438              
  1140   118.4263    2276(48)  2190.8367     1907.9147              
  1141   118.5263    2264(48)  2185.7371     1908.1849              
  1142   118.6263    2187(47)  2164.7627     1908.4539              
  1143   118.7263    2107(47)  2139.6541     1908.7217              
  1144   118.8263    2193(48)  2124.1494     1908.9884              
  1145   118.9263    2204(48)  2127.5610     1909.2542              
  1146   119.0263    2117(47)  2155.5793     1909.5187              
  1147   119.1263    2204(48)  2210.7498     1909.7822              
  1148   119.2263    2287(49)  2298.2432     1910.0442              
  1149   119.3263    2341(49)  2424.0879     1910.3057              
  1150   119.4263    2576(52)  2603.0486     1910.5656              
  1151   119.5263    2997(56)  2858.6160     1910.8246              
  1152   119.6263    3263(59)  3194.5278     1911.0824              
  1153   119.7263    3685(62)  3558.3687     1911.3391              
  1154   119.8263    4026(65)  3838.3784     1911.5947              
  1155   119.9263    3966(64)  3946.5166     1911.8491              
  1156   120.0263    3846(64)  3893.9058     1912.1025              
  1157   120.1263    3641(63)  3706.3589     1912.3549              
  1158   120.2263    3379(61)  3395.2144     1912.6058              
  1159   120.3263    3003(58)  3040.6001     1912.8556              
  1160   120.4263    2566(53)  2730.0464     1913.1045              
  1161   120.5263    2399(52)  2506.7529     1913.3522              
  1162   120.6263    2465(52)  2379.4768     1913.5988              
  1163   120.7263    2449(52)  2340.8599     1913.8440              
  1164   120.8263    2613(53)  2389.4253     1914.0883              
  1165   120.9263    2944(56)  2528.3774     1914.3312              
  1166   121.0263    3238(59)  2766.1743     1914.5731              
  1167   121.1263    3511(61)  3099.6362     1914.8138              
  1168   121.2263    3704(62)  3489.6235     1915.0537              
  1169   121.3263    3962(64)  3837.9297     1915.2920              
  1170   121.4263    4213(65)  4019.5776     1915.5292              
  1171   121.5263    4054(64)  3988.6089     1915.7655              
  1172   121.6263    3853(62)  3794.0649     1916.0005              
  1173   121.7263    3559(59)  3516.7578     1916.2341              
  1174   121.8263    3260(56)  3250.9238     1916.4667              
  1175   121.9263    3052(54)  3077.1938     1916.6982              
  1176   122.0263    2983(53)  3015.9248     1916.9285              
  1177   122.1263    3088(54)  3039.6760     1917.1575              
  1178   122.2263    3068(54)  3082.9478     1917.3855              
  1179   122.3263    3106(54)  3086.8931     1917.6121              
  1180   122.4263    3103(54)  3047.3894     1917.8378              
  1181   122.5263    3159(55)  2977.6372     1918.0619              
  1182   122.6263    3048(54)  2865.7124     1918.2853              
  1183   122.7263    2809(51)  2704.2920     1918.5071              
  1184   122.8263    2561(49)  2528.8540     1918.7280              
  1185   122.9263    2523(48)  2374.3953     1918.9476              
  1186   123.0263    2316(46)  2262.7480     1919.1659              
  1187   123.1263    2178(45)  2197.3828     1919.3833              
  1188   123.2263    2071(43)  2172.2505     1919.5992              
  1189   123.3263    2109(44)  2177.3647     1919.8140              
  1190   123.4263    2126(44)  2204.0808     1920.0276              
  1191   123.5263    2187(45)  2247.3428     1920.2400              
  1192   123.6263    2186(45)  2303.5918     1920.4513              
  1193   123.7263    2366(47)  2365.1709     1920.6613              
  1194   123.8263    2370(47)  2417.8655     1920.8699              
  1195   123.9263    2429(47)  2448.4077     1921.0774              
  1196   124.0263    2340(46)  2458.9331     1921.2837              
  1197   124.1263    2469(48)  2467.7930     1921.4886              
  1198   124.2263    2388(47)  2490.6660     1921.6927              
  1199   124.3263    2471(48)  2533.2290     1921.8953              
  1200   124.4263    2534(48)  2586.3530     1922.0968              
  1201   124.5263    2595(49)  2622.7717     1922.2970              
  1202   124.6263    2544(49)  2620.5059     1922.4958              
  1203   124.7263    2467(48)  2575.1484     1922.6937              
  1204   124.8263    2518(48)  2492.7354     1922.8903              
  1205   124.9263    2450(47)  2395.0354     1923.0854              
  1206   125.0263    2364(47)  2306.0205     1923.2794              
  1207   125.1263    2124(44)  2235.9968     1923.4722              
  1208   125.2263    2152(45)  2187.5994     1923.6638              
  1209   125.3263    2095(45)  2165.5479     1923.8540              
  1210   125.4263    2086(45)  2169.2129     1924.0431              
  1211   125.5263    2139(45)  2194.2043     1924.2308              
  1212   125.6263    2221(46)  2228.2468     1924.4175              
  1213   125.7263    2162(45)  2256.9260     1924.6028              
  1214   125.8263    2179(46)  2265.8530     1924.7866              
  1215   125.9263    2286(47)  2256.9089     1924.9695              
  1216   126.0263    2265(47)  2240.6074     1925.1511              
  1217   126.1263    2172(46)  2227.3240     1925.3313              
  1218   126.2263    2130(46)  2215.9783     1925.5103              
  1219   126.3263    2086(46)  2197.9778     1925.6877              
  1220   126.4263    2135(47)  2169.0256     1925.8641              
  1221   126.5263    2193(47)  2134.3113     1926.0396              
  1222   126.6263    2101(47)  2103.2883     1926.2135              
  1223   126.7263    2012(46)  2083.3738     1926.3861              
  1224   126.8263    2000(46)  2076.2200     1926.5574              
  1225   126.9263    2130(47)  2082.8049     1926.7274              
  1226   127.0263    2123(47)  2103.0298     1926.8964              
  1227   127.1263    2128(48)  2135.8811     1927.0637              
  1228   127.2263    2153(48)  2180.9519     1927.2300              
  1229   127.3263    2138(48)  2235.1489     1927.3948              
  1230   127.4263    2242(49)  2289.3269     1927.5586              
  1231   127.5263    2311(49)  2332.8621     1927.7207              
  1232   127.6263    2373(49)  2361.2444     1927.8820              
  1233   127.7263    2400(50)  2377.6936     1928.0415              
  1234   127.8263    2440(50)  2386.5120     1928.2001              
  1235   127.9263    2406(49)  2389.3853     1928.3569              
  1236   128.0263    2512(50)  2396.7004     1928.5129              
  1237   128.1263    2445(50)  2423.9661     1928.6674              
  1238   128.2263    2348(49)  2492.8477     1928.8208              
  1239   128.3263    2455(49)  2626.9058     1928.9724              
  1240   128.4263    2746(52)  2841.6677     1929.1232              
  1241   128.5263    3004(54)  3136.3574     1929.2726              
  1242   128.6263    3500(58)  3485.1313     1929.4204              
  1243   128.7263    3893(61)  3826.9573     1929.5673              
  1244   128.8263    4138(63)  4063.3018     1929.7125              
  1245   128.9263    4343(64)  4107.4531     1929.8564              
  1246   129.0263    4140(63)  3966.1406     1929.9990              
  1247   129.1263    3769(60)  3720.9302     1930.1405              
  1248   129.2263    3478(58)  3442.0488     1930.2804              
  1249   129.3263    2994(54)  3165.8818     1930.4192              
  1250   129.4263    2825(52)  2916.0046     1930.5565              
  1251   129.5263    2640(50)  2711.0669     1930.6925              
  1252   129.6263    2534(49)  2559.4272     1930.8270              
  1253   129.7263    2352(47)  2460.1011     1930.9603              
  1254   129.8263    2300(47)  2405.4216     1931.0923              
  1255   129.9263    2410(48)  2383.0188     1931.2231              
  1256   130.0263    2314(47)  2375.8706     1931.3523              
  1257   130.1263    2342(47)  2367.5999     1931.4803              
  1258   130.2263    2380(47)  2349.5991     1931.6071              
  1259   130.3263    2355(47)  2325.5969     1931.7323              
  1260   130.4263    2249(46)  2306.0474     1931.8561              
  1261   130.5263    2282(47)  2296.1038     1931.9786              
  1262   130.6263    2287(47)  2295.3984     1932.0997              
  1263   130.7263    2308(47)  2298.9839     1932.2196              
  1264   130.8263    2259(46)  2302.0962     1932.3383              
  1265   130.9263    2254(46)  2305.6387     1932.4553              
  1266   131.0263    2277(47)  2317.1785     1932.5709              
  1267   131.1263    2253(47)  2345.1882     1932.6853              
  1268   131.2263    2249(47)  2403.6353     1932.7982              
  1269   131.3263    2429(49)  2509.8740     1932.9099              
  1270   131.4263    2410(48)  2686.6001     1933.0199              
  1271   131.5263    2714(51)  2951.7695     1933.1289              
  1272   131.6263    3083(54)  3315.9829     1933.2362              
  1273   131.7263    3691(59)  3770.3186     1933.3424              
  1274   131.8263    4296(64)  4279.4253     1933.4471              
  1275   131.9263    4864(68)  4778.1255     1933.5504              
  1276   132.0263    5392(72)  5184.2192     1933.6525              
  1277   132.1263    5626(74)  5435.1118     1933.7527              
  1278   132.2263    5719(75)  5532.8579     1933.8522              
  1279   132.3263    5603(74)  5530.9980     1933.9498              
  1280   132.4263    5512(73)  5476.0229     1934.0463              
  1281   132.5263    5439(73)  5362.9292     1934.1412              
  1282   132.6263    5209(71)  5155.8545     1934.2347              
  1283   132.7263    4902(70)  4844.4546     1934.3268              
  1284   132.8263    4509(68)  4461.7256     1934.4176              
  1285   132.9263    4144(66)  4054.0117     1934.5071              
  1286   133.0263    3633(62)  3664.8076     1934.5950              
  1287   133.1263    3278(59)  3333.6611     1934.6815              
  1288   133.2263    2906(56)  3086.3223     1934.7666              
  1289   133.3263    2763(55)  2929.3789     1934.8502              
  1290   133.4263    2724(55)  2851.8618     1934.9325              
  1291   133.5263    2826(55)  2831.6667     1935.0133              
  1292   133.6263    2701(54)  2838.2358     1935.0928              
  1293   133.7263    2794(55)  2844.8154     1935.1709              
  1294   133.8263    2848(55)  2838.0737     1935.2473              
  1295   133.9263    2841(55)  2822.5684     1935.3224              
  1296   134.0263    2849(55)  2807.2578     1935.3962              
  1297   134.1263    2763(54)  2794.8777     1935.4686              
  1298   134.2263    2739(54)  2778.3604     1935.5393              
  1299   134.3263    2812(54)  2746.6067     1935.6088              
  1300   134.4263    2643(52)  2694.4260     1935.6766              
  1301   134.5263    2712(52)  2626.3989     1935.7434              
  1302   134.6263    2567(51)  2553.1040     1935.8085              
  1303   134.7263    2485(50)  2482.3972     1935.8722              
  1304   134.8263    2402(49)  2418.5903     1935.9343              
  1305   134.9263    2328(49)  2366.0471     1935.9951              
  1306   135.0263    2355(49)  2326.4438     1936.0542              
  1307   135.1263    2279(48)  2307.0637     1936.1123              
  1308   135.2263    2319(48)  2304.9609     1936.1686              
  1309   135.3263    2140(46)  2316.5142     1936.2233              
  1310   135.4263    2220(47)  2334.5945     1936.2769              
  1311   135.5263    2346(48)  2350.4595     1936.3289              
  1312   135.6263    2263(47)  2357.2820     1936.3794              
  1313   135.7263    2279(47)  2353.0073     1936.4286              
  1314   135.8263    2389(48)  2341.6421     1936.4763              
  1315   135.9263    2309(47)  2328.0820     1936.5225              
  1316   136.0263    2402(48)  2315.3401     1936.5673              
  1317   136.1263    2366(48)  2303.2539     1936.6102              
  1318   136.2263    2310(48)  2292.2283     1936.6522              
  1319   136.3263    2284(47)  2285.7534     1936.6924              
  1320   136.4263    2187(46)  2290.3853     1936.7313              
  1321   136.5263    2229(47)  2311.4998     1936.7686              
  1322   136.6263    2306(48)  2354.3887     1936.8043              
  1323   136.7263    2427(49)  2421.3237     1936.8386              
  1324   136.8263    2365(48)  2511.0261     1936.8716              
  1325   136.9263    2479(49)  2618.3325     1936.9030              
  1326   137.0263    2770(52)  2734.9834     1936.9326              
  1327   137.1263    2832(53)  2849.7407     1936.9612              
  1328   137.2263    2876(53)  2947.6377     1936.9879              
  1329   137.3263    3096(55)  3012.0337     1937.0132              
  1330   137.4263    3172(56)  3027.8120     1937.0372              
  1331   137.5263    2999(54)  2994.0742     1937.0596              
  1332   137.6263    3005(54)  2925.7490     1937.0807              
  1333   137.7263    2926(53)  2841.6204     1937.0999              
  1334   137.8263    2861(52)  2758.8215     1937.1176              
  1335   137.9263    2665(51)  2685.3237     1937.1342              
  1336   138.0263    2681(51)  2624.6265     1937.1488              
  1337   138.1263    2604(50)  2579.3096     1937.1622              
  1338   138.2263    2526(49)  2556.8088     1937.1741              
  1339   138.3263    2479(49)  2564.5889     1937.1843              
  1340   138.4263    2493(49)  2611.6519     1937.1931              
  1341   138.5263    2577(50)  2703.6914     1937.2003              
  1342   138.6263    2740(52)  2844.1387     1937.2061              
  1343   138.7263    2863(53)  3029.1270     1937.2103              
  1344   138.8263    3138(56)  3251.5933     1937.2129              
  1345   138.9263    3527(59)  3487.6440     1937.2141              
  1346   139.0263    3679(60)  3706.2837     1937.2135              
  1347   139.1263    3973(64)  3869.5083     1937.2115              
  1348   139.2263    3983(65)  3945.5681     1937.2081              
  1349   139.3263    4114(67)  3917.6785     1937.2034              
  1350   139.4263    3971(66)  3794.7344     1937.1969              
  1351   139.5263    3838(64)  3602.5188     1937.1887              
  1352   139.6263    3425(61)  3374.3228     1937.1791              
  1353   139.7263    3231(59)  3142.3804     1937.1680              
  1354   139.8263    2974(56)  2930.4846     1937.1550              
  1355   139.9263    2755(55)  2751.8828     1937.1407              
  1356   140.0263    2608(53)  2613.4421     1937.1251              
  1357   140.1263    2428(51)  2515.0920     1937.1078              
  1358   140.2263    2357(51)  2452.1777     1937.0889              
  1359   140.3263    2344(51)  2415.9602     1937.0681              
  1360   140.4263    2351(50)  2398.8320     1937.0463              
  1361   140.5263    2265(49)  2393.5520     1937.0227              
  1362   140.6263    2398(51)  2395.8618     1936.9974              
  1363   140.7263    2334(49)  2403.5044     1936.9707              
  1364   140.8263    2407(50)  2413.0220     1936.9424              
  1365   140.9263    2373(50)  2419.4749     1936.9124              
  1366   141.0263    2415(50)  2417.8235     1936.8810              
  1367   141.1263    2396(50)  2405.2161     1936.8479              
  1368   141.2263    2344(49)  2382.8435     1936.8132              
  1369   141.3263    2350(49)  2355.5952     1936.7771              
  1370   141.4263    2321(49)  2327.9885     1936.7394              
  1371   141.5263    2261(48)  2304.8354     1936.7002              
  1372   141.6263    2193(47)  2287.7549     1936.6591              
  1373   141.7263    2151(46)  2277.5178     1936.6167              
  1374   141.8263    2244(48)  2274.3594     1936.5725              
  1375   141.9263    2223(48)  2278.8630     1936.5267              
  1376   142.0263    2200(48)  2292.0154     1936.4796              
  1377   142.1263    2288(48)  2314.0261     1936.4308              
  1378   142.2263    2318(49)  2344.1951     1936.3802              
  1379   142.3263    2294(48)  2380.1262     1936.3282              
  1380   142.4263    2395(50)  2418.0171     1936.2745              
  1381   142.5263    2448(50)  2453.2798     1936.2192              
  1382   142.6263    2477(51)  2482.0046     1936.1622              
  1383   142.7263    2447(50)  2502.5886     1936.1039              
  1384   142.8263    2470(50)  2516.1563     1936.0436              
  1385   142.9263    2482(50)  2525.8467     1935.9821              
  1386   143.0263    2554(51)  2537.0852     1935.9186              
  1387   143.1263    2597(52)  2555.1567     1935.8539              
  1388   143.2263    2536(52)  2584.3508     1935.7871              
  1389   143.3263    2536(51)  2626.8789     1935.7190              
  1390   143.4263    2695(53)  2682.7537     1935.6493              
  1391   143.5263    2682(53)  2750.2373     1935.5781              
  1392   143.6263    2778(53)  2826.1177     1935.5049              
  1393   143.7263    2772(53)  2904.8647     1935.4303              
  1394   143.8263    3037(56)  2977.9614     1935.3540              
  1395   143.9263    3115(56)  3035.3545     1935.2760              
  1396   144.0263    3110(56)  3067.8005     1935.1965              
  1397   144.1263    3341(59)  3069.0808     1935.1154              
  1398   144.2263    3188(58)  3037.3765     1935.0326              
  1399   144.3263    3196(58)  2975.7261     1934.9481              
  1400   144.4263    2968(56)  2891.1892     1934.8619              
  1401   144.5263    2870(55)  2792.6504     1934.7743              
  1402   144.6263    2799(54)  2689.6416     1934.6848              
  1403   144.7263    2638(53)  2589.9995     1934.5939              
  1404   144.8263    2646(53)  2499.7979     1934.5011              
  1405   144.9263    2495(51)  2422.6409     1934.4070              
  1406   145.0263    2508(52)  2360.6746     1934.3110              
  1407   145.1263    2360(50)  2313.2991     1934.2133              
  1408   145.2263    2254(49)  2280.8523     1934.1141              
  1409   145.3263    2203(48)  2262.0500     1934.0133              
  1410   145.4263    2272(49)  2255.7107     1933.9105              
  1411   145.5263    2173(49)  2260.9858     1933.8063              
  1412   145.6263    2300(50)  2277.1284     1933.7006              
  1413   145.7263    2337(51)  2303.2820     1933.5928              
  1414   145.8263    2342(52)  2338.3164     1933.4838              
  1415   145.9263    2226(50)  2380.4058     1933.3728              
  1416   146.0263    2369(52)  2428.2932     1933.2604              
  1417   146.1263    2508(53)  2479.5281     1933.1460              
  1418   146.2263    2496(53)  2532.0918     1933.0302              
  1419   146.3263    2510(53)  2584.2900     1932.9125              
  1420   146.4263    2550(53)  2634.9058     1932.7931              
  1421   146.5263    2561(53)  2683.4922     1932.6722              
  1422   146.6263    2656(54)  2729.9219     1932.5497              
  1423   146.7263    2804(55)  2773.7764     1932.4252              
  1424   146.8263    2763(54)  2813.3555     1932.2993              
  1425   146.9263    2864(55)  2845.2090     1932.1714              
  1426   147.0263    3007(56)  2864.6443     1932.0422              
  1427   147.1263    3039(56)  2867.3809     1931.9111              
  1428   147.2263    2883(54)  2851.0493     1931.7783              
  1429   147.3263    2877(54)  2820.0825     1931.6438              
  1430   147.4263    2816(53)  2779.5396     1931.5077              
  1431   147.5263    2788(53)  2736.5508     1931.3699              
  1432   147.6263    2685(52)  2699.4771     1931.2305              
  1433   147.7263    2639(51)  2673.5271     1931.0891              
  1434   147.8263    2615(51)  2662.3193     1930.9460              
  1435   147.9263    2508(50)  2667.8281     1930.8014              
  1436   148.0263    2639(51)  2690.3101     1930.6549              
  1437   148.1263    2642(51)  2729.0708     1930.5070              
  1438   148.2263    2651(51)  2781.9304     1930.3569              
  1439   148.3263    2744(52)  2846.0110     1930.2054              
  1440   148.4263    2790(52)  2917.6943     1930.0522              
  1441   148.5263    2937(53)  2992.7417     1929.8972              
  1442   148.6263    2996(54)  3066.5920     1929.7406              
  1443   148.7263    3122(55)  3135.2607     1929.5823              
  1444   148.8263    3197(55)  3195.8716     1929.4220              
  1445   148.9263    3217(56)  3246.4126     1929.2604              
  1446   149.0263    3320(57)  3285.7512     1929.0967              
  1447   149.1263    3336(57)  3312.1978     1928.9314              
  1448   149.2263    3336(57)  3324.8813     1928.7643              
  1449   149.3263    3196(56)  3324.7544     1928.5957              
  1450   149.4263    3215(56)  3315.2026     1928.4253              
  1451   149.5263    3126(56)  3301.2781     1928.2529              
  1452   149.6263    3251(56)  3288.1172     1928.0789              
  1453   149.7263    3303(57)  3279.1572     1927.9031              
  1454   149.8263    3131(55)  3276.8511     1927.7256              
  1455   149.9263    3255(56)  3280.3066     1927.5465              
  1456   150.0263    3239(56)  3287.0122     1927.3655              
  1457   150.1263    3255(57)  3293.0688     1927.1826              
  1458   150.2263    3321(57)  3293.9863     1926.9983              
  1459   150.3263    3324(57)  3285.4082     1926.8121              
  1460   150.4263    3364(57)  3263.7273     1926.6241              
  1461   150.5263    3265(56)  3226.6572     1926.4343              
  1462   150.6263    3299(57)  3173.6997     1926.2430              
  1463   150.7263    3235(56)  3106.7664     1926.0497              
  1464   150.8263    3218(56)  3029.0632     1925.8547              
  1465   150.9263    3067(55)  2944.6853     1925.6580              
  1466   151.0263    3003(55)  2857.6084     1925.4594              
  1467   151.1263    2850(53)  2771.2451     1925.2590              
  1468   151.2263    2705(52)  2688.1204     1925.0570              
  1469   151.3263    2608(51)  2609.9775     1924.8530              
  1470   151.4263    2573(51)  2537.9028     1924.6475              
  1471   151.5263    2483(50)  2472.5095     1924.4402              
  1472   151.6263    2423(49)  2414.1543     1924.2310              
  1473   151.7263    2462(49)  2362.6262     1924.0199              
  1474   151.8263    2367(48)  2318.3071     1923.8074              
  1475   151.9263    2243(47)  2280.5452     1923.5928              
  1476   152.0263    2341(48)  2248.7239     1923.3765              
  1477   152.1263    2197(48)  2222.4758     1923.1584              
  1478   152.2263    2199(48)  2201.3704     1922.9385              
  1479   152.3263    2272(49)  2184.8364     1922.7169              
  1480   152.4263    2210(49)  2172.3936     1922.4934              
  1481   152.5263    2183(48)  2163.5396     1922.2681              
  1482   152.6263    2220(49)  2157.7610     1922.0411              
  1483   152.7263    2227(48)  2154.5334     1921.8121              
  1484   152.8263    2232(49)  2153.1831     1921.5815              
  1485   152.9263    2245(49)  2153.6479     1921.3491              
  1486   153.0263    2156(48)  2155.4805     1921.1149              
  1487   153.1263    2240(49)  2158.6343     1920.8789              
  1488   153.2263    2233(49)  2163.3096     1920.6410              
  1489   153.3263    2169(48)  2169.9153     1920.4012              
  1490   153.4263    2229(48)  2178.9844     1920.1600              
  1491   153.5263    2148(47)  2190.6392     1919.9167              
  1492   153.6263    2306(49)  2206.2603     1919.6716              
  1493   153.7263    2207(48)  2225.7771     1919.4247              
  1494   153.8263    2248(48)  2248.8333     1919.1757              
  1495   153.9263    2318(48)  2276.5552     1918.9253              
  1496   154.0263    2309(48)  2308.0544     1918.6729              
  1497   154.1263    2370(49)  2343.1074     1918.4188              
  1498   154.2263    2410(49)  2380.7527     1918.1625              
  1499   154.3263    2393(49)  2420.3997     1917.9047              
  1500   154.4263    2419(49)  2460.7156     1917.6451              
  1501   154.5263    2383(48)  2500.4065     1917.3837              
  1502   154.6263    2612(51)  2538.1177     1917.1202              
  1503   154.7263    2596(50)  2572.7102     1916.8550              
  1504   154.8263    2600(50)  2603.4487     1916.5879              
  1505   154.9263    2580(50)  2630.3115     1916.3192              
  1506   155.0263    2714(51)  2653.8765     1916.0486              
  1507   155.1263    2706(51)  2675.2124     1915.7759              
  1508   155.2263    2681(51)  2695.5820     1915.5015              
  1509   155.3263    2679(51)  2716.0571     1915.2253              
  1510   155.4263    2709(51)  2737.5237     1914.9473              
  1511   155.5263    2764(51)  2760.2280     1914.6674              
  1512   155.6263    2875(52)  2783.9255     1914.3856              
  1513   155.7263    2831(52)  2807.8523     1914.1019              
  1514   155.8263    2832(52)  2830.7471     1913.8163              

#



_exptl_crystal_density_diffrn
2.838
_pd_instr_location
; 'PSI, Switzerland'
;
_refine_ls_goodness_of_fit_all
1.9010
_chemical_formula_structural
'Al2 O4, 2(K)'
_cell_formula_units_Z
8
_pd_proc_ls_profile_function
'pseudo-Voigt'
_pd_proc_2theta_range_min
4.5287
_chemical_formula_moiety
'Al2 O4, 2(K)'
_cell_length_a
5.43867(18)
_cell_length_b
10.9236(3)
_cell_length_c
15.4564(4)
_pd_proc_2theta_range_inc
0.100000
_chemical_formula_analytical
'Al2 O4, 2(K)'
_pd_proc_ls_prof_wR_factor
1.7252
_diffrn_radiation_type
'neutron'
_symmetry_space_group_name_Hall
'-P 2ac 2ab'
_chemical_formula_weight
196.16
_refine_ls_number_restraints
0
_computing_structure_refinement
FULLPROF
_pd_proc_ls_background_function
'linear interpolation'
_symmetry_space_group_name_H-M
'P B C A'
_cell_angle_gamma
90.00000
_cell_measurement_temperature
300
_pd_meas_2theta_range_inc
0.100000
_refine_ls_number_reflns
566
_pd_proc_ls_prof_R_factor
1.2628
_pd_meas_number_of_points
1602
_cell_volume
918.26(5)
_symmetry_cell_setting
orthorhombic
_pd_proc_ls_prof_wR_expected
1.2512
_diffrn_ambient_temperature
300
_diffrn_radiation_wavelength
1.88570
_pd_proc_2theta_range_max
164.6287
_diffrn_measurement_device_type
'HPRT neutron'
_cell_angle_alpha
90.00000
_refine_ls_number_parameters
68
_pd_meas_2theta_range_min
4.60000
_chemical_formula_sum
'Al2 K2 O4'
_cell_angle_beta
90.00000
_pd_meas_2theta_range_max
164.70000
_pd_proc_wavelength
1.885700
loop_
_symmetry_equiv_pos_as_xyz
x,y,z
x+1/2,-y+1/2,-z
-x,y+1/2,-z+1/2
-x+1/2,-y,z+1/2
-x,-y,-z
-x+1/2,y+1/2,z
x,-y+1/2,z+1/2
x+1/2,y,-z+1/2

loop_
_atom_type_symbol
_atom_type_scat_length_neutron
_atom_type_scat_source
AL 0.34490 V.F._Sears_Neutron_News_3_26_(1992)
K 0.36700 V.F._Sears_Neutron_News_3_26_(1992)
O 0.58030 V.F._Sears_Neutron_News_3_26_(1992)

loop_
_atom_site_type_symbol
_atom_site_label
_atom_site_fract_x
_atom_site_fract_y
_atom_site_fract_z
_atom_site_u_iso_or_equiv
_atom_site_adp_type
_atom_site_occupancy
AL Al1 0.2590(10) 0.0104(5) 0.1866(7) 0.0059(5) Uiso 1.00000
AL Al2 0.2811(8) 0.2601(5) 0.0656(5) 0.0059(5) Uiso 1.00000
K K1 0.7534(11) 0.0067(6) 0.0611(7) 0.021(5) Uani 1.00000
K K2 0.7916(10) 0.2592(5) 0.1863(5) 0.014(4) Uani 1.00000
O O1 0.5673(7) 0.2848(4) 0.0162(2) 0.018(2) Uani 1.00000
O O2 0.1777(7) 0.4023(3) 0.10588(19) 0.0089(19) Uani 1.00000
O O3 0.2965(6) 0.1555(3) 0.1479(2) 0.0164(18) Uani 1.00000
O O4 0.0526(7) 0.4856(3) 0.2776(3) 0.012(2) Uani 1.00000

loop_
_atom_site_aniso_label
_atom_site_aniso_u_11
_atom_site_aniso_u_22
_atom_site_aniso_u_33
_atom_site_aniso_u_12
_atom_site_aniso_u_13
_atom_site_aniso_u_23
_atom_site_aniso_type_symbol
K1 0.020(4) 0.018(4) 0.026(6) 0.00000 0.015(4) 0.00000 K
K2 0.019(3) 0.014(3) 0.010(5) 0.00000 -0.002(3) 0.00000 K
O1 0.0104(18) 0.029(2) 0.014(2) 0.00000 0.0093(15) 0.00000 O
O2 0.014(2) 0.0086(18) 0.0037(19) 0.00000 -0.0033(13) 0.00000 O
O3 0.0044(5) 0.018(2) 0.027(3) 0.00000 -0.0046(16) 0.00000 O
O4 0.0103(19) 0.012(2) 0.015(2) 0.00000 -0.0071(17) 0.00000 O

loop_
_geom_bond_atom_site_label_1
_geom_bond_atom_site_label_2
_geom_bond_site_symmetry_2
_geom_bond_distance
_geom_bond_publ_flag
Al1 O2 6_545 1.752(9) ?
Al1 O3 . 1.706(7) ?
Al1 O4 3_545 1.803(7) ?
Al1 O4 6_545 1.761(10) ?
Al2 O1 . 1.755(6) ?
Al2 O1 2_455 1.786(7) ?
Al2 O2 . 1.765(7) ?
Al2 O3 . 1.712(8) ?
K1 O1 6_645 2.703(8) ?
K1 O2 2_555 2.796(11) ?
K1 O2 6_545 2.698(7) ?
K1 O4 3_645 2.717(11) ?
K2 O1 . 2.912(8) ?
K2 O2 1_655 2.898(7) ?
K2 O3 . 2.981(6) ?
K2 O3 8_555 2.802(8) ?
K2 O4 8_555 2.849(7) ?

loop_
_geom_angle_atom_site_label_1
_geom_angle_atom_site_label_2
_geom_angle_atom_site_label_3
_geom_angle_site_symmetry_1
_geom_angle_site_symmetry_3
_geom_angle
_geom_angle_publ_flag
O2 Al1 O3 9_655 10_555 110.668 ?
O2 Al1 O4 9_655 11_556 107.574 ?
O2 Al1 O4 9_655 12_655 110.532 ?
O3 Al1 O4 10_555 11_556 111.067 ?
O3 Al1 O4 10_555 12_655 110.690 ?
O4 Al1 O4 11_556 12_655 106.177 ?
O1 Al2 O1 8_555 9_565 108.160 ?
O1 Al2 O2 8_555 10_555 107.502 ?
O1 Al2 O3 8_555 11_555 103.672 ?
O1 Al2 O2 9_565 10_555 106.489 ?
O1 Al2 O3 9_565 11_555 111.993 ?
O2 Al2 O3 10_555 11_555 109.926 ?



# powder data simulated using PLATON:

data_KAlO2_300_simulated_1.88570

_publcif_pd_cifplot 'simulated 2021-03-25'

