data_monoclinic_ND
 
_pd_block_id    300k_300mm_varH
#==============================================================================             
# 9. INSTRUMENT CHARACTERIZATION                                                            
                                                                                            
_exptl_special_details                                                                      
; ?                                                                                         
;                                                                                           
                                                                                            
# if regions of the data are excluded, the reason(s) are supplied here:                     
_pd_proc_info_excluded_regions                                                              
; ?                                                                                         
;                                                                                           
                                                                                            
# The following item is used to identify the equipment used to record                       
# the powder pattern when the diffractogram was measured at a laboratory                    
# other than the authors' home institution, e.g. when neutron or synchrotron                
# radiation is used.                                                                        
                                                                                            
_pd_instr_location                                                                          
; ?                                                                                         
;                                                                                           
_pd_calibration_special_details           # description of the method used                  
                                          # to calibrate the instrument                     
; ?                                                                                         
;                                                                                           
                                                                                            
_diffrn_ambient_temperature    ?                                                            
_diffrn_source                 ?                                                            
_diffrn_source_target          ?                                                            
_diffrn_source_type            ?                                                            
_diffrn_measurement_device_type ?                                                            
_diffrn_detector               ?                                                            
_diffrn_detector_type          ?  # make or model of detector                               
                                                                                            
_pd_meas_scan_method           ?  # options are 'step', 'cont',                             
                                  # 'tof', 'fixed' or                                       
                                  # 'disp' (= dispersive)                                   
_pd_meas_special_details                                                                    
;  ?                                                                                        
;                                                                                           
                                                                                            
# The following two items identify the program(s) used (if appropriate).                    
_computing_data_collection        ?                                                         
_computing_data_reduction         ?                                                         
                                                                                            
# Describe any processing performed on the data, prior to refinement.                       
# For example: a manual Lp correction or a precomputed absorption correction                
_pd_proc_info_data_reduction      ?                                                         
                                                                                            
# The following item is used for angular dispersive measurements only.                      
                                                                                            
_diffrn_radiation_monochromator   ?                                                         
                                                                                            
# The following items are used to define the size of the instrument.                        
# Not all distances are appropriate for all instrument types.                               
                                                                                            
_pd_instr_dist_src/mono           ?                                                         
_pd_instr_dist_mono/spec          ?                                                         
_pd_instr_dist_src/spec           ?                                                         
_pd_instr_dist_spec/anal          ?                                                         
_pd_instr_dist_anal/detc          ?                                                         
_pd_instr_dist_spec/detc          ?                                                         
                                                                                            
# 10. Specimen size and mounting information                                                
                                                                                            
# The next three fields give the specimen dimensions in mm.  The equatorial                 
# plane contains the incident and diffracted beam.                                          
                                                                                            
_pd_spec_size_axial               ?       # perpendicular to                                
                                          # equatorial plane                                
                                                                                            
_pd_spec_size_equat               ?       # parallel to                                     
                                          # scattering vector                               
                                          # in transmission                                 
                                                                                            
_pd_spec_size_thick               ?       # parallel to                                     
                                          # scattering vector                               
                                          # in reflection                                   
                                                                                            
_pd_spec_mounting                         # This field should be                            
                                          # used to give details of the                     
                                          # container.                                      
; ?                                                                                         
;                                                                                           
                                                                                            
_pd_spec_mount_mode               ?       # options are 'reflection'                        
                                          # or 'transmission'                               
                                                                                            
_pd_spec_shape                    ?       # options are 'cylinder'                          
                                          # 'flat_sheet' or 'irregular'                     
                                                                                            
     
_diffrn_radiation_probe                neutrons 
_diffrn_radiation_wavelength            1.5481
     
#  The following profile R-factors are NOT CORRECTED for background
#  The sum is extended to all non-excluded points.
#  These are the current CIF standard
 
_pd_proc_ls_prof_R_factor                3.4066
_pd_proc_ls_prof_wR_factor               4.4433
_pd_proc_ls_prof_wR_expected             1.5821
 
#  The following profile R-factors are CORRECTED for background
#  The sum is extended to all non-excluded points.
#  These items are not in the current CIF standard, but are defined above
 
_pd_proc_ls_prof_cR_factor                6.7511
_pd_proc_ls_prof_cwR_factor               7.0962
_pd_proc_ls_prof_cwR_expected             2.5268
 
#  The following items are not in the CIF standard, but are defined above
 
_pd_proc_ls_prof_chi2                 7.8872
_pd_proc_ls_prof_echi2                7.9204
  
_pd_proc_ls_background_function   
;   FullProf Background function number  
;                                                                              
                                                                               
_exptl_absorpt_process_details                                                 
;   FullProf Absorption/surface roughness correction    
 No correction is applied ?.                                                   
;                                                                              
                                                                               
_pd_proc_ls_profile_function                                                   
;                                                                              
;                                                                              
_pd_proc_ls_peak_cutoff 0.00500                                                
_pd_calc_method  "   Rietveld Refinement" 
                                                                               
#---- raw/calc data loop -----   
_pd_meas_2theta_range_min       1.250000
_pd_meas_2theta_range_max     151.899994
_pd_meas_2theta_range_inc       0.050019
_pd_proc_2theta_range_min       1.212770
_pd_proc_2theta_range_max     151.862762
_pd_proc_2theta_range_inc       0.050019
 
loop_
_pd_proc_point_id
_pd_proc_2theta_corrected   
_pd_proc_intensity_total
_pd_calc_intensity_total
_pd_proc_intensity_bkg_calc
 
   177    10.0128    2897(198)          2672.6453         2672.6453                                                                 
   178    10.0628    2691(190)          2672.6453         2672.6453                                                                 
   179    10.1128    2840(195)          2672.6453         2672.6453                                                                 
   180    10.1628    2910(196)          2672.6453         2672.6453                                                                 
   181    10.2128    3018(199)          2672.6453         2672.6453                                                                 
   182    10.2628    2893(194)          2672.6453         2672.6453                                                                 
   183    10.3128    3162(203)          2672.6453         2672.6453                                                                 
   184    10.3628    2958(195)          2672.6453         2672.6453                                                                 
   185    10.4128    3022(197)          2672.6453         2672.6453                                                                 
   186    10.4628    2810(189)          2672.6453         2672.6453                                                                 
   187    10.5128    2835(190)          2672.6453         2672.6453                                                                 
   188    10.5628    3101(198)          2672.6453         2672.6453                                                                 
   189    10.6128    3074(196)          2672.6453         2672.6453                                                                 
   190    10.6628    2932(191)          2672.6453         2672.6453                                                                 
   191    10.7128    2873(188)          2672.6453         2672.6453                                                                 
   192    10.7628    2788(185)          2672.6453         2672.6453                                                                 
   193    10.8128    2742(183)          2672.7163         2672.6453                                                                 
   194    10.8628    2895(187)          2672.7168         2672.6453                                                                 
   195    10.9128    2863(186)          2672.7175         2672.6453                                                                 
   196    10.9628    2829(184)          2672.7180         2672.6453                                                                 
   197    11.0128    2789(182)          2672.7188         2672.6453                                                                 
   198    11.0628    2901(185)          2672.7195         2672.6453                                                                 
   199    11.1128    2707(178)          2672.7200         2672.6453                                                                 
   200    11.1628    2835(182)          2672.7207         2672.6453                                                                 
   201    11.2128    2818(181)          2672.7998         2672.6453                                                                 
   202    11.2628    2920(184)          2672.8013         2672.6453                                                                 
   203    11.3128    2750(178)          2672.8027         2672.6453                                                                 
   204    11.3628    2749(177)          2672.8042         2672.6453                                                                 
   205    11.4128    2778(178)          2672.8057         2672.6453                                                                 
   206    11.4628    2778(177)          2672.8071         2672.6453                                                                 
   207    11.5128    2649(172)          2672.8086         2672.6453                                                                 
   208    11.5628    2525(168)          2672.8101         2672.6453                                                                 
   209    11.6128    2805(176)          2672.8118         2672.6453                                                                 
   210    11.6628    2823(176)          2672.8132         2672.6453                                                                 
   211    11.7128    2642(170)          2674.4451         2674.2754                                                                 
   212    11.7628    2526(166)          2672.3564         2672.1853                                                                 
   213    11.8128    2595(168)          2670.2681         2670.0952                                                                 
   214    11.8628    2637(168)          2668.1799         2668.0054                                                                 
   215    11.9128    2611(167)          2666.0913         2665.9153                                                                 
   216    11.9628    2703(170)          2664.0029         2663.8252                                                                 
   217    12.0128    2647(167)          2661.9148         2661.7351                                                                 
   218    12.0628    2644(167)          2659.8264         2659.6450                                                                 
   219    12.1128    2681(167)          2657.7380         2657.5549                                                                 
   220    12.1628    2624(165)          2655.6497         2655.4648                                                                 
   221    12.2128    2679(166)          2653.5615         2653.3748                                                                 
   222    12.2628    2768(169)          2651.4734         2651.2847                                                                 
   223    12.3128    2507(160)          2649.3850         2649.1946                                                                 
   224    12.3628    2609(163)          2647.2969         2647.1045                                                                 
   225    12.4128    2735(166)          2645.2087         2645.0144                                                                 
   226    12.4628    2772(167)          2643.1206         2642.9243                                                                 
   227    12.5128    2820(168)          2641.0325         2640.8342                                                                 
   228    12.5628    2668(163)          2638.9446         2638.7441                                                                 
   229    12.6128    2608(160)          2636.8564         2636.6541                                                                 
   230    12.6628    2707(163)          2634.7686         2634.5640                                                                 
   231    12.7128    2650(161)          2632.6807         2632.4739                                                                 
   232    12.7628    2607(159)          2630.6909         2630.3838                                                                 
   233    12.8128    2776(164)          2628.6040         2628.2937                                                                 
   234    12.8628    2556(157)          2626.5171         2626.2036                                                                 
   235    12.9128    2619(158)          2624.4304         2624.1135                                                                 
   236    12.9628    2606(157)          2622.3438         2622.0234                                                                 
   237    13.0128    2462(153)          2620.2571         2619.9333                                                                 
   238    13.0628    2673(158)          2618.1704         2617.8433                                                                 
   239    13.1128    2693(159)          2616.0840         2615.7534                                                                 
   240    13.1628    2684(158)          2613.9976         2613.6633                                                                 
   241    13.2128    2579(154)          2611.9111         2611.5732                                                                 
   242    13.2628    2671(157)          2609.8247         2609.4832                                                                 
   243    13.3128    2523(152)          2607.7383         2607.3931                                                                 
   244    13.3628    2607(154)          2605.6521         2605.3030                                                                 
   245    13.4128    2596(153)          2603.5659         2603.2129                                                                 
   246    13.4628    2738(157)          2601.4797         2601.1228                                                                 
   247    13.5128    2629(153)          2599.3938         2599.0327                                                                 
   248    13.5628    2705(155)          2597.3076         2596.9426                                                                 
   249    13.6128    2497(149)          2595.2217         2594.8525                                                                 
   250    13.6628    2438(146)          2593.1360         2592.7625                                                                 
   251    13.7128    2560(150)          2591.0500         2590.6724                                                                 
   252    13.7628    2637(152)          2588.9644         2588.5823                                                                 
   253    13.8128    2640(151)          2586.8787         2586.4922                                                                 
   254    13.8628    2557(148)          2584.7932         2584.4021                                                                 
   255    13.9128    2705(152)          2582.7078         2582.3120                                                                 
   256    13.9628    2602(149)          2580.6223         2580.2219                                                                 
   257    14.0128    2586(148)          2578.5371         2578.1318                                                                 
   258    14.0628    2504(145)          2576.4519         2576.0417                                                                 
   259    14.1128    2517(145)          2574.3667         2573.9517                                                                 
   260    14.1628    2499(144)          2572.2815         2571.8616                                                                 
   261    14.2128    2591(147)          2570.1965         2569.7715                                                                 
   262    14.2628    2623(147)          2568.1118         2567.6814                                                                 
   263    14.3128    2541(145)          2566.0271         2565.5913                                                                 
   264    14.3628    2653(147)          2563.9426         2563.5015                                                                 
   265    14.4128    2498(143)          2561.8582         2561.4114                                                                 
   266    14.4628    2530(143)          2559.7737         2559.3213                                                                 
   267    14.5128    2510(142)          2557.6892         2557.2312                                                                 
   268    14.5628    2579(144)          2555.6050         2555.1411                                                                 
   269    14.6128    2570(143)          2553.5208         2553.0510                                                                 
   270    14.6628    2478(140)          2551.4368         2550.9609                                                                 
   271    14.7128    2484(140)          2549.3530         2548.8708                                                                 
   272    14.7628    2586(142)          2547.2693         2546.7808                                                                 
   273    14.8128    2586(142)          2545.1855         2544.6907                                                                 
   274    14.8628    2441(138)          2543.1021         2542.6006                                                                 
   275    14.9128    2459(138)          2541.0186         2540.5105                                                                 
   276    14.9628    2378(135)          2538.9353         2538.4204                                                                 
   277    15.0128    2411(136)          2536.8523         2536.3303                                                                 
   278    15.0628    2442(136)          2534.7693         2534.2402                                                                 
   279    15.1128    2401(135)          2532.6865         2532.1501                                                                 
   280    15.1628    2442(136)          2530.6038         2530.0601                                                                 
   281    15.2128    2510(137)          2528.5212         2527.9700                                                                 
   282    15.2628    2425(135)          2526.4390         2525.8799                                                                 
   283    15.3128    2287(130)          2524.3567         2523.7898                                                                 
   284    15.3628    2480(135)          2522.2747         2521.6997                                                                 
   285    15.4128    2409(133)          2520.1929         2519.6096                                                                 
   286    15.4628    2398(132)          2518.1111         2517.5195                                                                 
   287    15.5128    2490(135)          2516.0298         2515.4294                                                                 
   288    15.5628    2566(136)          2513.9485         2513.3394                                                                 
   289    15.6128    2375(131)          2511.8672         2511.2493                                                                 
   290    15.6628    2434(132)          2509.7864         2509.1592                                                                 
   291    15.7128    2467(133)          2507.7058         2507.0693                                                                 
   292    15.7628    2406(131)          2505.6252         2504.9790                                                                 
   293    15.8128    2502(133)          2503.5452         2502.8892                                                                 
   294    15.8628    2521(133)          2501.4651         2500.7991                                                                 
   295    15.9128    2380(129)          2499.3853         2498.7090                                                                 
   296    15.9628    2375(129)          2497.3057         2496.6189                                                                 
   297    16.0128    2316(127)          2495.2263         2494.5288                                                                 
   298    16.0628    2432(130)          2493.1472         2492.4387                                                                 
   299    16.1128    2380(128)          2491.0686         2490.3486                                                                 
   300    16.1628    2516(131)          2488.9900         2488.2585                                                                 
   301    16.2128    2482(130)          2486.9116         2486.1685                                                                 
   302    16.2628    2384(127)          2484.8337         2484.0784                                                                 
   303    16.3128    2461(129)          2482.7561         2481.9883                                                                 
   304    16.3628    2341(125)          2480.6787         2479.8982                                                                 
   305    16.4128    2266(123)          2478.6016         2477.8081                                                                 
   306    16.4628    2303(124)          2476.5249         2475.7180                                                                 
   307    16.5128    2241(122)          2474.4485         2473.6279                                                                 
   308    16.5628    2265(122)          2472.3726         2471.5378                                                                 
   309    16.6128    2433(126)          2470.2969         2469.4478                                                                 
   310    16.6628    2435(126)          2468.2217         2467.3577                                                                 
   311    16.7128    2360(124)          2466.1467         2465.2676                                                                 
   312    16.7628    2302(122)          2464.0723         2463.1775                                                                 
   313    16.8128    2290(121)          2461.9983         2461.0874                                                                 
   314    16.8628    2334(122)          2459.9246         2458.9973                                                                 
   315    16.9128    2441(125)          2457.8516         2456.9072                                                                 
   316    16.9628    2442(124)          2455.7788         2454.8171                                                                 
   317    17.0128    2364(122)          2453.7068         2452.7273                                                                 
   318    17.0628    2411(123)          2451.6348         2450.6370                                                                 
   319    17.1128    2350(121)          2449.5640         2448.5471                                                                 
   320    17.1628    2362(121)          2447.4929         2446.4568                                                                 
   321    17.2128    2449(123)          2445.4231         2444.3669                                                                 
   322    17.2628    2391(121)          2443.3538         2442.2769                                                                 
   323    17.3128    2444(122)          2441.2847         2440.1868                                                                 
   324    17.3628    2309(119)          2439.2166         2438.0967                                                                 
   325    17.4128    2311(118)          2437.1489         2436.0066                                                                 
   326    17.4628    2273(117)          2435.0820         2433.9165                                                                 
   327    17.5128    2315(118)          2433.0159         2431.8264                                                                 
   328    17.5628    2348(119)          2430.9502         2429.7363                                                                 
   329    17.6128    2424(120)          2428.8855         2427.6462                                                                 
   330    17.6628    2337(118)          2426.8218         2425.5562                                                                 
   331    17.7128    2373(118)          2424.7588         2423.4661                                                                 
   332    17.7628    2396(119)          2422.6965         2421.3760                                                                 
   333    17.8128    2270(115)          2420.6353         2419.2859                                                                 
   334    17.8628    2345(117)          2418.5750         2417.1958                                                                 
   335    17.9128    2336(116)          2416.5156         2415.1057                                                                 
   336    17.9628    2339(116)          2414.4573         2413.0156                                                                 
   337    18.0128    2412(118)          2412.4001         2410.9255                                                                 
   338    18.0628    2324(115)          2410.3442         2408.8354                                                                 
   339    18.1128    2258(113)          2408.2893         2406.7454                                                                 
   340    18.1628    2331(115)          2406.2358         2404.6553                                                                 
   341    18.2128    2371(116)          2404.1836         2402.5652                                                                 
   342    18.2628    2303(114)          2402.1326         2400.4751                                                                 
   343    18.3128    2401(116)          2400.0833         2398.3850                                                                 
   344    18.3628    2407(116)          2398.0352         2396.2949                                                                 
   345    18.4128    2413(116)          2395.9888         2394.2048                                                                 
   346    18.4628    2543(119)          2393.9441         2392.1147                                                                 
   347    18.5128    2414(115)          2391.9016         2390.0249                                                                 
   348    18.5628    2322(113)          2389.8601         2387.9346                                                                 
   349    18.6128    2375(114)          2387.8213         2385.8447                                                                 
   350    18.6628    2412(114)          2385.7839         2383.7544                                                                 
   351    18.7128    2367(113)          2383.7493         2381.6646                                                                 
   352    18.7628    2373(113)          2381.7168         2379.5745                                                                 
   353    18.8128    2374(113)          2379.6865         2377.4844                                                                 
   354    18.8628    2427(114)          2377.6589         2375.3943                                                                 
   355    18.9128    2322(111)          2375.6338         2373.3042                                                                 
   356    18.9628    2375(112)          2373.6118         2371.2141                                                                 
   357    19.0128    2359(111)          2371.5928         2369.1240                                                                 
   358    19.0628    2381(112)          2369.5769         2367.0339                                                                 
   359    19.1128    2368(111)          2367.5642         2364.9438                                                                 
   360    19.1628    2351(110)          2365.5554         2362.8538                                                                 
   361    19.2128    2432(112)          2363.5503         2360.7637                                                                 
   362    19.2628    2418(112)          2361.5493         2358.6736                                                                 
   363    19.3128    2452(112)          2359.5527         2356.5835                                                                 
   364    19.3628    2369(110)          2357.5608         2354.4934                                                                 
   365    19.4128    2384(110)          2355.5737         2352.4033                                                                 
   366    19.4628    2342(109)          2353.5920         2350.3132                                                                 
   367    19.5128    2412(110)          2351.6160         2348.2231                                                                 
   368    19.5628    2325(108)          2349.6460         2346.1331                                                                 
   369    19.6128    2340(108)          2347.6826         2344.0430                                                                 
   370    19.6628    2411(109)          2345.7261         2341.9529                                                                 
   371    19.7128    2339(108)          2343.7769         2339.8628                                                                 
   372    19.7628    2336(107)          2341.8362         2337.7729                                                                 
   373    19.8128    2266(105)          2339.9038         2335.6826                                                                 
   374    19.8628    2354(107)          2337.9810         2333.5928                                                                 
   375    19.9128    2272(105)          2336.0681         2331.5024                                                                 
   376    19.9628    2290(105)          2334.1667         2329.4126                                                                 
   377    20.0128    2293(105)          2332.2769         2327.3225                                                                 
   378    20.0628    2298(105)          2330.3999         2325.2324                                                                 
   379    20.1128    2391(107)          2328.5371         2323.1423                                                                 
   380    20.1628    2358(106)          2326.6897         2321.0522                                                                 
   381    20.2128    2261(104)          2324.8591         2318.9622                                                                 
   382    20.2628    2316(105)          2323.0469         2316.8721                                                                 
   383    20.3128    2427(107)          2321.2549         2314.7820                                                                 
   384    20.3628    2330(104)          2319.4849         2312.6919                                                                 
   385    20.4128    2286(103)          2317.7395         2310.6018                                                                 
   386    20.4628    2366(105)          2316.0208         2308.5117                                                                 
   387    20.5128    2260(102)          2314.3320         2306.4216                                                                 
   388    20.5628    2361(104)          2312.6765         2304.3315                                                                 
   389    20.6128    2226(101)          2311.0579         2302.2415                                                                 
   390    20.6628    2291(102)          2309.4805         2300.1514                                                                 
   391    20.7128    2391(104)          2307.9492         2298.0613                                                                 
   392    20.7628    2265(101)          2306.4697         2295.9712                                                                 
   393    20.8128    2363(103)          2305.0488         2293.8811                                                                 
   394    20.8628    2279(101)          2303.6943         2291.7910                                                                 
   395    20.9128    2344(102)          2302.4150         2289.7009                                                                 
   396    20.9628    2388(103)          2301.2219         2287.6108                                                                 
   397    21.0128    2263(100)          2300.1277         2285.5210                                                                 
   398    21.0628    2249(100)          2299.1467         2283.4307                                                                 
   399    21.1128    2361(102)          2298.2979         2281.3408                                                                 
   400    21.1628    2290(100)          2297.6021         2279.2505                                                                 
   401    21.2128    2313(100)          2297.0869         2277.1606                                                                 
   402    21.2628    2492(104)          2296.8147         2275.0706                                                                 
   403    21.3128    2327(100)          2296.7644         2272.9805                                                                 
   404    21.3628    2340(100)          2297.0173         2270.8904                                                                 
   405    21.4128    2394(101)          2297.6404         2268.8003                                                                 
   406    21.4628    2360(100)          2298.7686         2266.7102                                                                 
   407    21.5128    2279(99)          2300.5322         2264.6201                                                                  
   408    21.5628    2403(101)          2303.4736         2262.5300                                                                 
   409    21.6128    2299(99)          2309.0979         2260.4399                                                                  
   410    21.6628    2389(100)          2321.8274         2258.3499                                                                 
   411    21.7128    2287(98)          2353.6938         2256.2598                                                                  
   412    21.7628    2375(100)          2433.8896         2254.1697                                                                 
   413    21.8128    2682(106)          2625.2356         2252.0796                                                                 
   414    21.8628    3008(112)          3044.9150         2249.9895                                                                 
   415    21.9128    3999(129)          3879.4009         2247.8994                                                                 
   416    21.9628    5881(156)          5372.3711         2245.8093                                                                 
   417    22.0128    8628(188)          7763.4062         2243.7192                                                                 
   418    22.0628    12474(226)         11173.0684         2241.6292                                                                
   419    22.1128    17542(268)         15469.6201         2239.5391                                                                
   420    22.1628    22740(304)         20195.4668         2237.4490                                                                
   421    22.2128    27558(334)         24627.8711         2235.3589                                                                
   422    22.2628    30947(354)         28005.4336         2233.2690                                                                
   423    22.3128    32507(362)         29845.0273         2231.1787                                                                
   424    22.3628    32666(362)         30165.9492         2229.0889                                                                
   425    22.4128    32289(359)         29454.0879         2226.9985                                                                
   426    22.4628    31039(351)         28369.5898         2224.9087                                                                
   427    22.5128    30063(345)         27335.4727         2222.8186                                                                
   428    22.5628    27808(331)         26265.1699         2220.7285                                                                
   429    22.6128    25212(315)         24655.3262         2218.6384                                                                
   430    22.6628    21799(292)         22013.2695         2216.5483                                                                
   431    22.7128    17264(259)         18313.3887         2214.4583                                                                
   432    22.7628    12929(224)         14079.4336         2212.3682                                                                
   433    22.8128    8770(184)         10063.9834         2210.2781                                                                 
   434    22.8628    5927(151)          6854.7700         2208.1880                                                                 
   435    22.9128    4151(126)          4666.5308         2206.0979                                                                 
   436    22.9628    2924(105)          3381.7812         2204.0078                                                                 
   437    23.0128    2575(99)          2726.3423         2201.9177                                                                  
   438    23.0628    2389(95)          2432.1160         2199.8276                                                                  
   439    23.1128    2270(92)          2312.9089         2197.7375                                                                  
   440    23.1628    2363(94)          2266.5518         2195.6475                                                                  
   441    23.2128    2206(91)          2246.8274         2193.5574                                                                  
   442    23.2628    2218(91)          2236.0417         2191.4673                                                                  
   443    23.3128    2316(92)          2228.3215         2189.3772                                                                  
   444    23.3628    2305(92)          2221.8975         2187.2871                                                                  
   445    23.4128    2172(89)          2216.2280         2185.1970                                                                  
   446    23.4628    2257(91)          2211.1057         2183.1069                                                                  
   447    23.5128    2293(91)          2206.4160         2181.0171                                                                  
   448    23.5628    2096(87)          2202.0779         2178.9268                                                                  
   449    23.6128    2145(88)          2198.0308         2176.8369                                                                  
   450    23.6628    2130(87)          2194.2256         2174.7466                                                                  
   451    23.7128    2224(89)          2190.6245         2172.6567                                                                  
   452    23.7628    2174(88)          2187.1958         2170.5667                                                                  
   453    23.8128    2098(86)          2183.9141         2168.4766                                                                  
   454    23.8628    2150(87)          2180.7588         2166.3865                                                                  
   455    23.9128    2197(88)          2177.7122         2164.2964                                                                  
   456    23.9628    2182(87)          2174.7605         2162.2063                                                                  
   457    24.0128    2186(87)          2171.8909         2160.1162                                                                  
   458    24.0628    2111(86)          2169.0938         2158.0261                                                                  
   459    24.1128    2111(86)          2166.3601         2155.9360                                                                  
   460    24.1628    2077(85)          2163.6826         2153.8459                                                                  
   461    24.2128    2252(88)          2161.0552         2151.7559                                                                  
   462    24.2628    2223(87)          2158.4719         2149.6658                                                                  
   463    24.3128    2273(88)          2155.9282         2147.5757                                                                  
   464    24.3628    2177(86)          2153.4202         2145.4856                                                                  
   465    24.4128    2062(84)          2150.9438         2143.3955                                                                  
   466    24.4628    2087(84)          2148.4966         2141.3054                                                                  
   467    24.5128    2108(84)          2146.0750         2139.2153                                                                  
   468    24.5628    2175(85)          2143.6772         2137.1252                                                                  
   469    24.6128    2151(85)          2141.3008         2135.0352                                                                  
   470    24.6628    2232(86)          2138.9436         2132.9451                                                                  
   471    24.7128    2089(83)          2136.6045         2130.8550                                                                  
   472    24.7628    2130(84)          2134.2817         2128.7651                                                                  
   473    24.8128    2126(84)          2131.9734         2126.6748                                                                  
   474    24.8628    2118(83)          2129.6794         2124.5850                                                                  
   475    24.9128    2174(84)          2127.3972         2122.4946                                                                  
   476    24.9628    2158(84)          2125.1274         2120.4048                                                                  
   477    25.0128    2113(83)          2122.8677         2118.3145                                                                  
   478    25.0628    2115(83)          2120.6184         2116.2246                                                                  
   479    25.1128    2203(84)          2118.3777         2114.1343                                                                  
   480    25.1628    2137(83)          2116.1460         2112.0444                                                                  
   481    25.2128    2152(83)          2113.9219         2109.9541                                                                  
   482    25.2628    2096(82)          2111.7053         2107.8643                                                                  
   483    25.3128    2125(82)          2109.4954         2105.7739                                                                  
   484    25.3628    2162(83)          2107.2922         2103.6841                                                                  
   485    25.4128    2198(83)          2105.0947         2101.5938                                                                  
   486    25.4628    2147(82)          2102.9031         2099.5039                                                                  
   487    25.5128    2121(81)          2100.7166         2097.4138                                                                  
   488    25.5628    2167(82)          2098.5349         2095.3237                                                                  
   489    25.6128    2109(81)          2096.3579         2093.2336                                                                  
   490    25.6628    2060(80)          2094.1851         2091.1436                                                                  
   491    25.7128    2100(80)          2092.0166         2089.0535                                                                  
   492    25.7628    2151(81)          2089.8518         2086.9634                                                                  
   493    25.8128    2125(81)          2087.6907         2084.8733                                                                  
   494    25.8628    2092(80)          2085.5330         2082.7832                                                                  
   495    25.9128    2226(82)          2083.3784         2080.6931                                                                  
   496    25.9628    2073(79)          2081.2273         2078.6030                                                                  
   497    26.0128    2189(81)          2079.0789         2076.5129                                                                  
   498    26.0628    2248(82)          2076.9331         2074.4229                                                                  
   499    26.1128    2141(80)          2074.7900         2072.3328                                                                  
   500    26.1628    2157(80)          2072.6497         2070.2427                                                                  
   501    26.2128    2082(79)          2070.5115         2068.1526                                                                  
   502    26.2628    2099(79)          2068.3755         2066.0625                                                                  
   503    26.3128    2166(80)          2066.2419         2063.9724                                                                  
   504    26.3628    2136(79)          2064.1104         2061.8823                                                                  
   505    26.4128    2163(79)          2061.9807         2059.7922                                                                  
   506    26.4628    2168(79)          2059.8530         2057.7021                                                                  
   507    26.5128    2234(80)          2057.9124         2055.7974                                                                  
   508    26.5628    2239(80)          2058.8748         2056.7937                                                                  
   509    26.6128    2213(80)          2059.8386         2057.7900                                                                  
   510    26.6628    2204(80)          2060.8042         2058.7864                                                                  
   511    26.7128    2199(79)          2061.7717         2059.7830                                                                  
   512    26.7628    2132(78)          2062.7405         2060.7793                                                                  
   513    26.8128    2093(77)          2063.7107         2061.7756                                                                  
   514    26.8628    2199(79)          2064.6824         2062.7720                                                                  
   515    26.9128    2178(78)          2065.6553         2063.7683                                                                  
   516    26.9628    2230(79)          2066.6299         2064.7649                                                                  
   517    27.0128    2169(78)          2067.6055         2065.7612                                                                  
   518    27.0628    2088(76)          2068.5825         2066.7576                                                                  
   519    27.1128    2029(75)          2069.5605         2067.7539                                                                  
   520    27.1628    2095(76)          2070.5400         2068.7502                                                                  
   521    27.2128    2088(76)          2071.5210         2069.7468                                                                  
   522    27.2628    2071(75)          2072.5027         2070.7432                                                                  
   523    27.3128    2143(77)          2073.4856         2071.7395                                                                  
   524    27.3628    2208(78)          2074.4697         2072.7358                                                                  
   525    27.4128    2151(76)          2075.4551         2073.7322                                                                  
   526    27.4628    2113(76)          2076.4417         2074.7288                                                                  
   527    27.5128    2190(77)          2077.4290         2075.7251                                                                  
   528    27.5628    2148(76)          2078.4175         2076.7214                                                                  
   529    27.6128    2109(75)          2079.4072         2077.7178                                                                  
   530    27.6628    2176(76)          2080.3979         2078.7141                                                                  
   531    27.7128    2130(75)          2081.3901         2079.7107                                                                  
   532    27.7628    2121(75)          2082.3831         2080.7070                                                                  
   533    27.8128    2063(74)          2083.3772         2081.7034                                                                  
   534    27.8628    2091(74)          2084.3726         2082.6997                                                                  
   535    27.9128    2091(74)          2085.3689         2083.6960                                                                  
   536    27.9628    2071(74)          2086.3667         2084.6926                                                                  
   537    28.0128    2104(74)          2087.3655         2085.6890                                                                  
   538    28.0628    2146(75)          2088.3652         2086.6853                                                                  
   539    28.1128    2088(73)          2089.3665         2087.6816                                                                  
   540    28.1628    2070(73)          2090.3687         2088.6780                                                                  
   541    28.2128    2073(73)          2091.3726         2089.6746                                                                  
   542    28.2628    2094(73)          2092.3774         2090.6709                                                                  
   543    28.3128    2158(74)          2093.3838         2091.6672                                                                  
   544    28.3628    2195(75)          2094.3916         2092.6636                                                                  
   545    28.4128    2109(73)          2095.4006         2093.6599                                                                  
   546    28.4628    2143(74)          2096.4116         2094.6565                                                                  
   547    28.5128    2016(71)          2097.4236         2095.6528                                                                  
   548    28.5628    2052(72)          2098.4375         2096.6492                                                                  
   549    28.6128    2036(71)          2099.4529         2097.6455                                                                  
   550    28.6628    1992(70)          2100.4702         2098.6418                                                                  
   551    28.7128    2078(72)          2101.4895         2099.6384                                                                  
   552    28.7628    2173(73)          2102.5105         2100.6348                                                                  
   553    28.8128    2025(71)          2103.5334         2101.6311                                                                  
   554    28.8628    2097(72)          2104.5588         2102.6274                                                                  
   555    28.9128    2080(71)          2105.5862         2103.6238                                                                  
   556    28.9628    2025(70)          2106.6162         2104.6204                                                                  
   557    29.0128    2071(71)          2107.6487         2105.6167                                                                  
   558    29.0628    2050(70)          2108.8455         2106.6130                                                                  
   559    29.1128    2118(71)          2109.8843         2107.6094                                                                  
   560    29.1628    2136(72)          2110.9263         2108.6057                                                                  
   561    29.2128    2158(72)          2111.9719         2109.6023                                                                  
   562    29.2628    2039(70)          2113.2910         2110.5986                                                                  
   563    29.3128    2137(71)          2114.3462         2111.5950                                                                  
   564    29.3628    2153(71)          2115.4053         2112.5913                                                                  
   565    29.4128    2058(70)          2116.7173         2113.5876                                                                  
   566    29.4628    2058(70)          2117.7883         2114.5842                                                                  
   567    29.5128    2052(69)          2118.8643         2115.5806                                                                  
   568    29.5628    2171(71)          2119.9458         2116.5769                                                                  
   569    29.6128    2065(69)          2121.0334         2117.5732                                                                  
   570    29.6628    2118(70)          2122.1274         2118.5696                                                                  
   571    29.7128    2126(70)          2123.2288         2119.5662                                                                  
   572    29.7628    2125(70)          2124.3376         2120.5625                                                                  
   573    29.8128    2120(70)          2125.4551         2121.5588                                                                  
   574    29.8628    2013(68)          2126.5818         2122.5552                                                                  
   575    29.9128    2070(69)          2127.7188         2123.5515                                                                  
   576    29.9628    2042(68)          2128.8672         2124.5481                                                                  
   577    30.0128    2128(69)          2130.0278         2125.5444                                                                  
   578    30.0628    2107(69)          2131.2024         2126.5408                                                                  
   579    30.1128    2094(69)          2132.3923         2127.5371                                                                  
   580    30.1628    1973(66)          2133.5994         2128.5334                                                                  
   581    30.2128    2105(69)          2134.8257         2129.5300                                                                  
   582    30.2628    2099(68)          2136.0735         2130.5264                                                                  
   583    30.3128    2015(67)          2137.3457         2131.5227                                                                  
   584    30.3628    2016(67)          2138.6455         2132.5190                                                                  
   585    30.4128    2127(68)          2139.9766         2133.5154                                                                  
   586    30.4628    2072(67)          2141.5374         2134.5120                                                                  
   587    30.5128    2043(67)          2142.9468         2135.5083                                                                  
   588    30.5628    1991(66)          2144.4033         2136.5046                                                                  
   589    30.6128    2037(67)          2145.9150         2137.5010                                                                  
   590    30.6628    1985(66)          2147.4912         2138.4973                                                                  
   591    30.7128    2016(66)          2149.1428         2139.4939                                                                  
   592    30.7628    2106(67)          2150.8838         2140.4902                                                                  
   593    30.8128    2074(67)          2152.7312         2141.4866                                                                  
   594    30.8628    2038(66)          2154.7068         2142.4829                                                                  
   595    30.9128    2139(67)          2156.8389         2143.4792                                                                  
   596    30.9628    2151(68)          2159.1665         2144.4758                                                                  
   597    31.0128    2056(66)          2161.7554         2145.4722                                                                  
   598    31.0628    2087(66)          2164.7566         2146.4685                                                                  
   599    31.1128    2194(68)          2168.6113         2147.4648                                                                  
   600    31.1628    2125(67)          2174.6597         2148.4612                                                                  
   601    31.2128    2132(67)          2186.6758         2149.4578                                                                  
   602    31.2628    2173(67)          2213.9746         2150.4541                                                                  
   603    31.3128    2246(68)          2276.1738         2151.4504                                                                  
   604    31.3628    2402(70)          2407.6538         2152.4468                                                                  
   605    31.4128    2672(74)          2656.8994         2153.4431                                                                  
   606    31.4628    3025(79)          3075.0813         2154.4397                                                                  
   607    31.5128    3622(86)          3694.4746         2155.4360                                                                  
   608    31.5628    4639(97)          4508.5557         2156.4324                                                                  
   609    31.6128    5513(106)          5471.3125         2157.4287                                                                 
   610    31.6628    6556(116)          6521.7969         2158.4250                                                                 
   611    31.7128    7896(127)          7617.2119         2159.4216                                                                 
   612    31.7628    9200(137)          8742.0273         2160.4180                                                                 
   613    31.8128    10696(147)          9861.2158         2161.4143                                                                
   614    31.8628    11982(155)         10857.5449         2162.4106                                                                
   615    31.9128    12717(160)         11531.3037         2163.4070                                                                
   616    31.9628    12351(157)         11672.9775         2164.4036                                                                
   617    32.0128    11642(152)         11163.7910         2165.3999                                                                
   618    32.0628    10362(143)         10046.3936         2166.3962                                                                
   619    32.1128    8589(130)          8521.0605         2167.3926                                                                 
   620    32.1628    6777(116)          6871.8486         2168.3889                                                                 
   621    32.2128    5192(101)          5361.3682         2169.3855                                                                 
   622    32.2628    4053(89)          4155.8276         2170.3818                                                                  
   623    32.3128    3134(78)          3305.6001         2171.3782                                                                  
   624    32.3628    2598(71)          2771.5601         2172.3745                                                                  
   625    32.4128    2338(67)          2471.2537         2173.3708                                                                  
   626    32.4628    2236(66)          2319.1804         2174.3674                                                                  
   627    32.5128    2096(63)          2249.1296         2175.3638                                                                  
   628    32.5628    2044(62)          2219.3872         2176.3601                                                                  
   629    32.6128    2157(64)          2207.2610         2177.3564                                                                  
   630    32.6628    2081(63)          2202.1843         2178.3528                                                                  
   631    32.7128    2004(61)          2199.7996         2179.3494                                                                  
   632    32.7628    2002(61)          2198.4900         2180.3457                                                                  
   633    32.8128    2021(62)          2197.6943         2181.3420                                                                  
   634    32.8628    1958(60)          2197.2119         2182.3384                                                                  
   635    32.9128    2033(62)          2196.9580         2183.3347                                                                  
   636    32.9628    2119(63)          2196.8848         2184.3313                                                                  
   637    33.0128    2059(62)          2196.9587         2185.3276                                                                  
   638    33.0628    2116(62)          2197.1545         2186.3240                                                                  
   639    33.1128    2014(61)          2197.4526         2187.3203                                                                  
   640    33.1628    2037(61)          2197.8369         2188.3167                                                                  
   641    33.2128    2089(62)          2198.2944         2189.3132                                                                  
   642    33.2628    2104(62)          2198.8145         2190.3096                                                                  
   643    33.3128    2098(62)          2199.3882         2191.3059                                                                  
   644    33.3628    2099(62)          2199.9309         2192.3022                                                                  
   645    33.4128    2066(61)          2200.5928         2193.2986                                                                  
   646    33.4628    2106(61)          2201.2900         2194.2952                                                                  
   647    33.5128    2044(60)          2202.0186         2195.2915                                                                  
   648    33.5628    1969(59)          2202.7744         2196.2878                                                                  
   649    33.6128    2018(60)          2203.5549         2197.2842                                                                  
   650    33.6628    1996(59)          2204.3572         2198.2805                                                                  
   651    33.7128    2147(62)          2205.1792         2199.2771                                                                  
   652    33.7628    2120(61)          2206.0186         2200.2734                                                                  
   653    33.8128    2157(62)          2206.8735         2201.2698                                                                  
   654    33.8628    2083(60)          2207.7432         2202.2661                                                                  
   655    33.9128    2048(60)          2208.6255         2203.2625                                                                  
   656    33.9628    2058(60)          2209.5203         2204.2590                                                                  
   657    34.0128    2097(60)          2210.3552         2205.2554                                                                  
   658    34.0628    2041(59)          2211.2710         2206.2517                                                                  
   659    34.1128    2137(61)          2212.1963         2207.2480                                                                  
   660    34.1628    2168(61)          2213.1299         2208.2444                                                                  
   661    34.2128    2094(60)          2214.0718         2209.2410                                                                  
   662    34.2628    2079(59)          2215.0210         2210.2373                                                                  
   663    34.3128    2028(59)          2215.9768         2211.2336                                                                  
   664    34.3628    2036(59)          2216.9395         2212.2300                                                                  
   665    34.4128    2140(60)          2217.9082         2213.2263                                                                  
   666    34.4628    2106(59)          2218.8831         2214.2229                                                                  
   667    34.5128    2090(59)          2219.8630         2215.2192                                                                  
   668    34.5628    2142(60)          2220.8486         2216.2156                                                                  
   669    34.6128    2075(59)          2221.8391         2217.2119                                                                  
   670    34.6628    2046(58)          2222.8345         2218.2083                                                                  
   671    34.7128    2136(59)          2223.8350         2219.2048                                                                  
   672    34.7628    2119(59)          2224.8396         2220.2012                                                                  
   673    34.8128    2131(59)          2224.9529         2220.3015                                                                  
   674    34.8628    2200(60)          2224.0996         2219.4309                                                                  
   675    34.9128    2154(59)          2223.2505         2218.5603                                                                  
   676    34.9628    2091(58)          2222.4058         2217.6897                                                                  
   677    35.0128    2046(58)          2221.5649         2216.8191                                                                  
   678    35.0628    2065(58)          2220.7288         2215.9487                                                                  
   679    35.1128    2206(60)          2219.8965         2215.0781                                                                  
   680    35.1628    2201(59)          2219.0684         2214.2075                                                                  
   681    35.2128    2171(59)          2218.2444         2213.3369                                                                  
   682    35.2628    2097(58)          2217.4248         2212.4663                                                                  
   683    35.3128    2126(58)          2216.6096         2211.5959                                                                  
   684    35.3628    2139(58)          2215.7983         2210.7253                                                                  
   685    35.4128    2129(58)          2214.9915         2209.8547                                                                  
   686    35.4628    2182(59)          2214.1892         2208.9841                                                                  
   687    35.5128    2158(58)          2213.3918         2208.1138                                                                  
   688    35.5628    2084(57)          2212.5989         2207.2432                                                                  
   689    35.6128    2100(57)          2211.8108         2206.3726                                                                  
   690    35.6628    2092(57)          2211.0276         2205.5020                                                                  
   691    35.7128    2149(58)          2210.2498         2204.6313                                                                  
   692    35.7628    2212(58)          2209.8923         2203.7610                                                                  
   693    35.8128    2117(57)          2209.1699         2202.8904                                                                  
   694    35.8628    2211(58)          2208.4131         2202.0198                                                                  
   695    35.9128    2215(58)          2207.6624         2201.1492                                                                  
   696    35.9628    2232(58)          2206.9180         2200.2786                                                                  
   697    36.0128    2224(58)          2206.1807         2199.4082                                                                  
   698    36.0628    2220(58)          2205.4500         2198.5376                                                                  
   699    36.1128    2167(57)          2204.7268         2197.6670                                                                  
   700    36.1628    2228(58)          2204.0112         2196.7964                                                                  
   701    36.2128    2219(58)          2203.3040         2195.9258                                                                  
   702    36.2628    2165(57)          2202.6057         2195.0554                                                                  
   703    36.3128    2147(57)          2201.9163         2194.1848                                                                  
   704    36.3628    2153(57)          2201.2366         2193.3142                                                                  
   705    36.4128    2251(58)          2200.5674         2192.4436                                                                  
   706    36.4628    2291(58)          2199.9092         2191.5732                                                                  
   707    36.5128    2356(59)          2199.2625         2190.7026                                                                  
   708    36.5628    2443(60)          2198.6487         2189.8320                                                                  
   709    36.6128    2438(60)          2198.0281         2188.9614                                                                  
   710    36.6628    2569(61)          2197.4214         2188.0908                                                                  
   711    36.7128    2698(63)          2196.8306         2187.2205                                                                  
   712    36.7628    2627(62)          2196.2556         2186.3499                                                                  
   713    36.8128    2650(62)          2195.6985         2185.4792                                                                  
   714    36.8628    2470(60)          2195.1604         2184.6086                                                                  
   715    36.9128    2428(59)          2194.6428         2183.7380                                                                  
   716    36.9628    2302(57)          2194.1477         2182.8677                                                                  
   717    37.0128    2246(57)          2193.6765         2181.9971                                                                  
   718    37.0628    2119(55)          2193.2312         2181.1265                                                                  
   719    37.1128    2189(56)          2192.8611         2180.2559                                                                  
   720    37.1628    2144(55)          2192.4758         2179.3855                                                                  
   721    37.2128    2110(54)          2192.1238         2178.5149                                                                  
   722    37.2628    2103(54)          2191.8088         2177.6443                                                                  
   723    37.3128    2133(55)          2191.5344         2176.7737                                                                  
   724    37.3628    2100(54)          2191.3047         2175.9031                                                                  
   725    37.4128    2171(55)          2191.1240         2175.0327                                                                  
   726    37.4628    2158(55)          2190.9973         2174.1621                                                                  
   727    37.5128    2139(54)          2190.9307         2173.2915                                                                  
   728    37.5628    2279(56)          2190.9309         2172.4209                                                                  
   729    37.6128    2334(57)          2191.0054         2171.5503                                                                  
   730    37.6628    2542(59)          2191.1631         2170.6799                                                                  
   731    37.7128    2579(59)          2191.4138         2169.8093                                                                  
   732    37.7628    2766(61)          2191.7690         2168.9387                                                                  
   733    37.8128    3006(64)          2192.2429         2168.0684                                                                  
   734    37.8628    2994(64)          2192.8779         2167.1978                                                                  
   735    37.9128    3068(64)          2193.6384         2166.3271                                                                  
   736    37.9628    3186(65)          2194.5735         2165.4565                                                                  
   737    38.0128    3145(65)          2195.7092         2164.5859                                                                  
   738    38.0628    2939(63)          2197.0762         2163.7156                                                                  
   739    38.1128    2864(62)          2198.7119         2162.8450                                                                  
   740    38.1628    2656(59)          2200.6604         2161.9744                                                                  
   741    38.2128    2524(58)          2202.9771         2161.1038                                                                  
   742    38.2628    2472(57)          2205.7285         2160.2332                                                                  
   743    38.3128    2368(56)          2209.0291         2159.3628                                                                  
   744    38.3628    2417(56)          2212.9202         2158.4922                                                                  
   745    38.4128    2367(56)          2217.5632         2157.6216                                                                  
   746    38.4628    2322(55)          2223.1255         2156.7510                                                                  
   747    38.5128    2313(55)          2229.8262         2155.8804                                                                  
   748    38.5628    2285(54)          2237.9744         2155.0100                                                                  
   749    38.6128    2273(54)          2248.0908         2154.1394                                                                  
   750    38.6628    2331(55)          2261.3599         2153.2688                                                                  
   751    38.7128    2281(54)          2281.2153         2152.3982                                                                  
   752    38.7628    2323(54)          2318.1799         2151.5278                                                                  
   753    38.8128    2354(55)          2402.3438         2150.6572                                                                  
   754    38.8628    2552(57)          2609.6611         2149.7866                                                                  
   755    38.9128    3028(62)          3104.5239         2148.9160                                                                  
   756    38.9628    3949(71)          4185.1904         2148.0454                                                                  
   757    39.0128    6042(87)          6290.3760         2147.1750                                                                  
   758    39.0628    9539(110)          9905.6650         2146.3044                                                                 
   759    39.1128    15124(138)         15340.0410         2145.4338                                                                
   760    39.1628    22375(168)         22433.6953         2144.5632                                                                
   761    39.2128    30046(194)         30365.6406         2143.6926                                                                
   762    39.2628    37244(216)         37717.9766         2142.8223                                                                
   763    39.3128    42289(230)         42879.1914         2141.9517                                                                
   764    39.3628    43291(232)         44661.1602         2141.0811                                                                
   765    39.4128    41430(227)         42689.7773         2140.2104                                                                
   766    39.4628    36904(213)         37432.0117         2139.3401                                                                
   767    39.5128    29617(191)         30092.8516         2138.4695                                                                
   768    39.5628    21824(164)         22242.1699         2137.5989                                                                
   769    39.6128    14922(135)         15241.3574         2136.7283                                                                
   770    39.6628    9848(109)          9873.9072         2135.8577                                                                 
   771    39.7128    6153(86)          6288.8481         2134.9873                                                                  
   772    39.7628    4115(70)          4188.4824         2134.1167                                                                  
   773    39.8128    2952(59)          3101.9209         2133.2461                                                                  
   774    39.8628    2472(54)          2599.7959         2132.3755                                                                  
   775    39.9128    2309(52)          2387.1326         2131.5049                                                                  
   776    39.9628    2238(51)          2299.5188         2130.6345                                                                  
   777    40.0128    2127(50)          2260.2141         2129.7639                                                                  
   778    40.0628    2091(49)          2238.4983         2128.8933                                                                  
   779    40.1128    2063(49)          2223.5364         2128.0227                                                                  
   780    40.1628    2175(50)          2211.7786         2127.1523                                                                  
   781    40.2128    2125(50)          2202.0015         2126.2817                                                                  
   782    40.2628    2134(50)          2193.6755         2125.4111                                                                  
   783    40.3128    2132(50)          2186.4897         2124.5405                                                                  
   784    40.3628    2186(50)          2180.2241         2123.6699                                                                  
   785    40.4128    2082(49)          2174.7126         2122.7996                                                                  
   786    40.4628    2154(50)          2169.8237         2121.9290                                                                  
   787    40.5128    2155(50)          2165.4543         2121.0583                                                                  
   788    40.5628    2157(49)          2161.5217         2120.1877                                                                  
   789    40.6128    2117(49)          2157.9585         2119.3171                                                                  
   790    40.6628    2132(49)          2154.7114         2118.4468                                                                  
   791    40.7128    2103(49)          2151.7346         2117.5762                                                                  
   792    40.7628    2165(49)          2148.9915         2116.7056                                                                  
   793    40.8128    2072(48)          2146.4514         2115.8352                                                                  
   794    40.8628    2064(48)          2144.0881         2114.9644                                                                  
   795    40.9128    2100(48)          2141.9631         2114.0940                                                                  
   796    40.9628    2121(48)          2139.8936         2113.2234                                                                  
   797    41.0128    2110(48)          2137.9453         2112.3528                                                                  
   798    41.0628    2158(49)          2136.1890         2111.4824                                                                  
   799    41.1128    2110(48)          2134.4465         2110.6118                                                                  
   800    41.1628    2118(48)          2132.7910         2109.7412                                                                  
   801    41.2128    2157(48)          2131.2136         2108.8706                                                                  
   802    41.2628    2082(48)          2129.7073         2108.0000                                                                  
   803    41.3128    2095(48)          2128.2659         2107.1296                                                                  
   804    41.3628    2033(47)          2126.8828         2106.2590                                                                  
   805    41.4128    2114(48)          2125.5540         2105.3884                                                                  
   806    41.4628    2015(46)          2124.2749         2104.5178                                                                  
   807    41.5128    2056(47)          2123.0420         2103.6475                                                                  
   808    41.5628    2084(47)          2121.8518         2102.7769                                                                  
   809    41.6128    2015(46)          2120.7012         2101.9062                                                                  
   810    41.6628    2084(47)          2119.5881         2101.0356                                                                  
   811    41.7128    2100(47)          2118.4866         2100.1650                                                                  
   812    41.7628    2044(46)          2117.4426         2099.2947                                                                  
   813    41.8128    2089(47)          2116.4114         2098.4241                                                                  
   814    41.8628    2062(46)          2115.4292         2097.5535                                                                  
   815    41.9128    2129(47)          2114.4758         2096.6829                                                                  
   816    41.9628    2093(47)          2113.5505         2095.8123                                                                  
   817    42.0128    2125(47)          2112.6523         2094.9419                                                                  
   818    42.0628    2066(46)          2111.7808         2094.0713                                                                  
   819    42.1128    2100(46)          2110.9348         2093.2007                                                                  
   820    42.1628    2138(47)          2110.1145         2092.3301                                                                  
   821    42.2128    2189(47)          2109.3433         2091.4595                                                                  
   822    42.2628    2139(47)          2108.5737         2090.5891                                                                  
   823    42.3128    2302(48)          2107.8291         2089.7185                                                                  
   824    42.3628    2342(49)          2107.1099         2088.8479                                                                  
   825    42.4128    2333(49)          2106.4160         2087.9773                                                                  
   826    42.4628    2233(47)          2105.7483         2087.1069                                                                  
   827    42.5128    2245(47)          2105.0735         2086.2363                                                                  
   828    42.5628    2205(47)          2104.4592         2085.3657                                                                  
   829    42.6128    2119(46)          2103.8730         2084.4951                                                                  
   830    42.6628    2152(46)          2103.3154         2083.6245                                                                  
   831    42.7128    2150(46)          2102.7878         2082.7542                                                                  
   832    42.7628    2004(44)          2102.2910         2081.8835                                                                  
   833    42.8128    2078(45)          2101.8267         2081.0129                                                                  
   834    42.8628    2096(45)          2101.3655         2080.1423                                                                  
   835    42.9128    2082(45)          2100.9712         2079.2717                                                                  
   836    42.9628    2054(45)          2100.6150         2078.4014                                                                  
   837    43.0128    1960(44)          2100.2983         2077.5308                                                                  
   838    43.0628    1991(44)          2100.0244         2076.6602                                                                  
   839    43.1128    2038(45)          2099.7957         2075.7896                                                                  
   840    43.1628    2048(45)          2099.6155         2074.9189                                                                  
   841    43.2128    2009(44)          2099.4871         2074.0486                                                                  
   842    43.2628    2093(45)          2099.4143         2073.1780                                                                  
   843    43.3128    2079(45)          2099.4019         2072.3074                                                                  
   844    43.3628    2105(45)          2099.4541         2071.4368                                                                  
   845    43.4128    2105(45)          2099.5769         2070.5664                                                                  
   846    43.4628    2069(45)          2099.7759         2069.6958                                                                  
   847    43.5128    2145(46)          2100.0581         2068.8252                                                                  
   848    43.5628    2127(46)          2100.4314         2067.9546                                                                  
   849    43.6128    2089(45)          2100.9043         2067.0840                                                                  
   850    43.6628    2118(46)          2101.4868         2066.2136                                                                  
   851    43.7128    2107(45)          2102.2087         2065.3430                                                                  
   852    43.7628    2079(45)          2103.0601         2064.4724                                                                  
   853    43.8128    2098(45)          2104.0459         2063.6021                                                                  
   854    43.8628    2170(46)          2105.1946         2062.7314                                                                  
   855    43.9128    2155(46)          2106.5266         2061.8608                                                                  
   856    43.9628    2218(47)          2108.0642         2060.9902                                                                  
   857    44.0128    2204(46)          2109.8328         2060.1196                                                                  
   858    44.0628    2192(46)          2111.8623         2059.2493                                                                  
   859    44.1128    2248(47)          2114.1870         2058.3787                                                                  
   860    44.1628    2285(47)          2116.8484         2057.5081                                                                  
   861    44.2128    2298(47)          2119.8953         2056.6375                                                                  
   862    44.2628    2246(47)          2123.3884         2055.7668                                                                  
   863    44.3128    2304(48)          2127.4072         2054.8965                                                                  
   864    44.3628    2304(48)          2132.0681         2054.0259                                                                  
   865    44.4128    2305(48)          2137.5676         2053.1553                                                                  
   866    44.4628    2344(48)          2144.2947         2052.2847                                                                  
   867    44.5128    2402(49)          2153.0818         2051.4141                                                                  
   868    44.5628    2266(47)          2165.7886         2050.5437                                                                  
   869    44.6128    2318(48)          2186.2405         2049.6731                                                                  
   870    44.6628    2404(49)          2222.4460         2048.8025                                                                  
   871    44.7128    2425(49)          2289.7607         2047.9320                                                                  
   872    44.7628    2526(50)          2415.8027         2047.0614                                                                  
   873    44.8128    2695(51)          2646.6548         2046.1909                                                                  
   874    44.8628    2933(54)          3053.1626         2045.3203                                                                  
   875    44.9128    3376(58)          3734.4634         2044.4497                                                                  
   876    44.9628    4269(65)          4815.3345         2043.5792                                                                  
   877    45.0128    5630(75)          6432.6743         2042.7086                                                                  
   878    45.0628    7909(88)          8709.3418         2041.8381                                                                  
   879    45.1128    11126(105)         11717.6211         2040.9675                                                                
   880    45.1628    15123(122)         15438.8262         2040.0969                                                                
   881    45.2128    20267(142)         19735.3340         2039.2264                                                                
   882    45.2628    25324(159)         24343.3340         2038.3560                                                                
   883    45.3128    29954(173)         28897.4375         2037.4854                                                                
   884    45.3628    33462(182)         32985.5742         2036.6147                                                                
   885    45.4128    35774(189)         36224.3438         2035.7441                                                                
   886    45.4628    36872(192)         38339.6797         2034.8737                                                                
   887    45.5128    37466(193)         39211.2500         2034.0032                                                                
   888    45.5628    36966(192)         38864.0859         2033.1326                                                                
   889    45.6128    35895(189)         37425.9961         2032.2620                                                                
   890    45.6628    34944(186)         35088.9023         2031.3915                                                                
   891    45.7128    33427(182)         32093.0664         2030.5209                                                                
   892    45.7628    31261(176)         28739.1816         2029.6504                                                                
   893    45.8128    28028(167)         25417.2754         2028.7798                                                                
   894    45.8628    25392(159)         22633.9102         2027.9092                                                                
   895    45.9128    23643(153)         21000.1797         2027.0387                                                                
   896    45.9628    23062(151)         21116.4590         2026.1681                                                                
   897    46.0128    24566(156)         23322.0020         2025.2976                                                                
   898    46.0628    27913(167)         27373.5723         2024.4270                                                                
   899    46.1128    32276(179)         32251.3301         2023.5564                                                                
   900    46.1628    35572(188)         36307.8281         2022.6859                                                                
   901    46.2128    36652(191)         37836.0508         2021.8154                                                                
   902    46.2628    34758(186)         35885.2891         2020.9448                                                                
   903    46.3128    29946(173)         30810.5469         2020.0743                                                                
   904    46.3628    23365(152)         24002.4004         2019.2037                                                                
   905    46.4128    16856(129)         17106.4805         2018.3331                                                                
   906    46.4628    11172(105)         11349.5283         2017.4626                                                                
   907    46.5128    7117(84)          7251.5420         2016.5920                                                                  
   908    46.5628    4516(67)          4719.5356         2015.7216                                                                  
   909    46.6128    3160(56)          3343.9810         2014.8510                                                                  
   910    46.6628    2639(51)          2677.5532         2013.9803                                                                  
   911    46.7128    2351(48)          2382.5293         2013.1099                                                                  
   912    46.7628    2259(47)          2257.1067         2012.2393                                                                  
   913    46.8128    2216(47)          2200.7683         2011.3688                                                                  
   914    46.8628    2108(45)          2170.5959         2010.4982                                                                  
   915    46.9128    2096(45)          2150.4841         2009.6277                                                                  
   916    46.9628    2089(45)          2134.8926         2008.7571                                                                  
   917    47.0128    2077(45)          2121.9207         2007.8866                                                                  
   918    47.0628    2070(45)          2110.8062         2007.0160                                                                  
   919    47.1128    2021(44)          2101.1418         2006.1454                                                                  
   920    47.1628    2149(46)          2092.6558         2005.2749                                                                  
   921    47.2128    2073(45)          2085.1416         2004.4043                                                                  
   922    47.2628    2004(44)          2078.4392         2003.5338                                                                  
   923    47.3128    2152(46)          2072.4199         2002.6632                                                                  
   924    47.3628    2173(46)          2066.9807         2001.7926                                                                  
   925    47.4128    2134(46)          2062.0381         2000.9221                                                                  
   926    47.4628    2050(45)          2057.5227         2000.0515                                                                  
   927    47.5128    2107(45)          2053.3774         1999.1810                                                                  
   928    47.5628    2049(45)          2049.5549         1998.3105                                                                  
   929    47.6128    2066(45)          2046.0146         1997.4399                                                                  
   930    47.6628    2052(45)          2042.7236         1996.5693                                                                  
   931    47.7128    2097(45)          2039.6531         1995.6987                                                                  
   932    47.7628    2108(45)          2036.7787         1994.8282                                                                  
   933    47.8128    2100(45)          2034.0792         1993.9578                                                                  
   934    47.8628    2061(45)          2031.5367         1993.0872                                                                  
   935    47.9128    2086(45)          2029.1357         1992.2166                                                                  
   936    47.9628    2032(45)          2026.8628         1991.3461                                                                  
   937    48.0128    2001(44)          2024.7058         1990.4755                                                                  
   938    48.0628    2038(45)          2022.6549         1989.6050                                                                  
   939    48.1128    2106(45)          2020.7007         1988.7344                                                                  
   940    48.1628    2068(45)          2018.8356         1987.8638                                                                  
   941    48.2128    2008(44)          2017.0526         1986.9933                                                                  
   942    48.2628    2075(45)          2015.3456         1986.1227                                                                  
   943    48.3128    2054(45)          2013.7094         1985.2522                                                                  
   944    48.3628    2091(45)          2012.1389         1984.3816                                                                  
   945    48.4128    2077(45)          2010.6304         1983.5110                                                                  
   946    48.4628    2045(45)          2009.1803         1982.6405                                                                  
   947    48.5128    2067(45)          2007.7854         1981.7700                                                                  
   948    48.5628    2040(45)          2006.4427         1980.8994                                                                  
   949    48.6128    1964(44)          2005.1503         1980.0288                                                                  
   950    48.6628    2022(44)          2003.9060         1979.1583                                                                  
   951    48.7128    1976(44)          2002.7083         1978.2877                                                                  
   952    48.7628    2008(44)          2001.5559         1977.4172                                                                  
   953    48.8128    2013(44)          2000.4475         1976.5466                                                                  
   954    48.8628    2120(46)          1999.3909         1975.6760                                                                  
   955    48.9128    2036(45)          1998.3694         1974.8055                                                                  
   956    48.9628    1987(44)          1997.3906         1973.9349                                                                  
   957    49.0128    2049(45)          1996.4551         1973.0645                                                                  
   958    49.0628    2034(45)          1995.5629         1972.1938                                                                  
   959    49.1128    1958(44)          1994.7148         1971.3232                                                                  
   960    49.1628    1932(43)          1993.9124         1970.4528                                                                  
   961    49.2128    1959(44)          1993.8817         1970.3075                                                                  
   962    49.2628    1937(44)          1994.5690         1970.8317                                                                  
   963    49.3128    2034(45)          1995.3069         1971.3558                                                                  
   964    49.3628    2087(45)          1995.8300         1971.8800                                                                  
   965    49.4128    2064(45)          1996.6803         1972.4042                                                                  
   966    49.4628    2024(44)          1997.5906         1972.9283                                                                  
   967    49.5128    1959(44)          1998.3196         1973.4525                                                                  
   968    49.5628    2008(44)          1999.3662         1973.9767                                                                  
   969    49.6128    2000(44)          2000.4883         1974.5009                                                                  
   970    49.6628    2052(45)          2001.6927         1975.0250                                                                  
   971    49.7128    2030(45)          2002.9875         1975.5492                                                                  
   972    49.7628    2041(45)          2004.3822         1976.0734                                                                  
   973    49.8128    1969(44)          2005.8878         1976.5975                                                                  
   974    49.8628    1961(44)          2007.5176         1977.1218                                                                  
   975    49.9128    1982(44)          2009.2866         1977.6460                                                                  
   976    49.9628    1935(43)          2011.2131         1978.1702                                                                  
   977    50.0128    1999(44)          2013.3188         1978.6943                                                                  
   978    50.0628    2033(45)          2015.6300         1979.2185                                                                  
   979    50.1128    2021(44)          2018.1783         1979.7427                                                                  
   980    50.1628    2005(44)          2021.0032         1980.2668                                                                  
   981    50.2128    2021(44)          2024.1572         1980.7910                                                                  
   982    50.2628    2025(45)          2027.7201         1981.3152                                                                  
   983    50.3128    2019(44)          2031.8361         1981.8394                                                                  
   984    50.3628    2044(45)          2036.8151         1982.3635                                                                  
   985    50.4128    2019(44)          2043.3817         1982.8877                                                                  
   986    50.4628    2050(45)          2053.2314         1983.4119                                                                  
   987    50.5128    2053(45)          2070.1277         1983.9360                                                                  
   988    50.5628    2067(45)          2101.7866         1984.4602                                                                  
   989    50.6128    2078(45)          2162.6021         1984.9844                                                                  
   990    50.6628    2196(46)          2276.6838         1985.5085                                                                  
   991    50.7128    2267(47)          2479.9639         1986.0327                                                                  
   992    50.7628    2587(50)          2819.2700         1986.5569                                                                  
   993    50.8128    3216(56)          3346.6099         1987.0811                                                                  
   994    50.8628    3894(62)          4108.5332         1987.6052                                                                  
   995    50.9128    4850(69)          5132.6138         1988.1294                                                                  
   996    50.9628    6066(77)          6416.2920         1988.6536                                                                  
   997    51.0128    7673(87)          7920.8857         1989.1777                                                                  
   998    51.0628    9580(97)          9573.8135         1989.7019                                                                  
   999    51.1128    11426(106)         11279.3584         1990.2262                                                                
  1000    51.1628    13142(114)         12930.2910         1990.7504                                                                
  1001    51.2128    14700(121)         14411.6631         1991.2745                                                                
  1002    51.2628    15814(125)         15601.2930         1991.7987                                                                
  1003    51.3128    16432(128)         16385.7363         1992.3229                                                                
  1004    51.3628    16737(129)         16692.0898         1992.8470                                                                
  1005    51.4128    16498(128)         16517.8027         1993.3712                                                                
  1006    51.4628    16077(126)         15941.9785         1993.8954                                                                
  1007    51.5128    15491(124)         15122.4824         1994.4196                                                                
  1008    51.5628    14968(122)         14284.6104         1994.9437                                                                
  1009    51.6128    14482(120)         13687.0059         1995.4679                                                                
  1010    51.6628    14606(120)         13551.1855         1995.9921                                                                
  1011    51.7128    15086(122)         13965.4141         1996.5162                                                                
  1012    51.7628    15825(125)         14804.4521         1997.0404                                                                
  1013    51.8128    16539(128)         15717.8594         1997.5646                                                                
  1014    51.8628    16695(129)         16223.2695         1998.0887                                                                
  1015    51.9128    16401(128)         15896.5264         1998.6129                                                                
  1016    51.9628    15082(122)         14577.9824         1999.1371                                                                
  1017    52.0128    12725(112)         12452.7451         1999.6613                                                                
  1018    52.0628    10293(101)          9947.0088         2000.1854                                                                
  1019    52.1128    7794(88)          7523.2285         2000.7097                                                                  
  1020    52.1628    5663(75)          5515.2573         2001.2339                                                                  
  1021    52.2128    4121(64)          4060.4946         2001.7581                                                                  
  1022    52.2628    3095(55)          3127.5757         2002.2821                                                                  
  1023    52.3128    2588(50)          2592.9185         2002.8063                                                                  
  1024    52.3628    2355(48)          2316.0334         2003.3306                                                                  
  1025    52.4128    2126(46)          2184.1453         2003.8547                                                                  
  1026    52.4628    2043(45)          2124.3040         2004.3789                                                                  
  1027    52.5128    2097(45)          2096.6880         2004.9031                                                                  
  1028    52.5628    2081(45)          2082.4368         2005.4272                                                                  
  1029    52.6128    2063(45)          2073.6353         2005.9514                                                                  
  1030    52.6628    2035(45)          2067.2578         2006.4756                                                                  
  1031    52.7128    2068(45)          2062.1899         2006.9998                                                                  
  1032    52.7628    2021(44)          2058.3411         2007.5239                                                                  
  1033    52.8128    1992(44)          2054.8083         2008.0481                                                                  
  1034    52.8628    2018(44)          2051.8086         2008.5723                                                                  
  1035    52.9128    2065(45)          2049.2498         2009.0964                                                                  
  1036    52.9628    1986(44)          2047.0599         2009.6206                                                                  
  1037    53.0128    2052(45)          2045.1824         2010.1448                                                                  
  1038    53.0628    2069(45)          2043.5710         2010.6689                                                                  
  1039    53.1128    1968(44)          2042.1880         2011.1931                                                                  
  1040    53.1628    2034(45)          2041.0024         2011.7173                                                                  
  1041    53.2128    2012(44)          2039.9884         2012.2415                                                                  
  1042    53.2628    2041(45)          2039.1244         2012.7656                                                                  
  1043    53.3128    2056(45)          2038.3921         2013.2898                                                                  
  1044    53.3628    2013(44)          2037.7782         2013.8141                                                                  
  1045    53.4128    1975(44)          2037.2656         2014.3383                                                                  
  1046    53.4628    2026(45)          2036.8452         2014.8624                                                                  
  1047    53.5128    2051(45)          2036.5072         2015.3865                                                                  
  1048    53.5628    2004(44)          2036.2435         2015.9106                                                                  
  1049    53.6128    2028(45)          2036.0469         2016.4349                                                                  
  1050    53.6628    2042(45)          2035.9111         2016.9591                                                                  
  1051    53.7128    2020(44)          2035.8308         2017.4833                                                                  
  1052    53.7628    2020(44)          2035.8011         2018.0074                                                                  
  1053    53.8128    2024(44)          2035.8182         2018.5316                                                                  
  1054    53.8628    1891(43)          2035.8783         2019.0558                                                                  
  1055    53.9128    1918(43)          2035.9874         2019.5800                                                                  
  1056    53.9628    1958(44)          2036.1248         2020.1041                                                                  
  1057    54.0128    2019(44)          2036.2968         2020.6283                                                                  
  1058    54.0628    2009(44)          2036.5017         2021.1525                                                                  
  1059    54.1128    2044(45)          2036.7375         2021.6766                                                                  
  1060    54.1628    2017(44)          2037.0029         2022.2008                                                                  
  1061    54.2128    2024(44)          2037.2965         2022.7250                                                                  
  1062    54.2628    2105(45)          2037.6173         2023.2491                                                                  
  1063    54.3128    2056(45)          2037.9644         2023.7733                                                                  
  1064    54.3628    1995(44)          2038.5560         2024.2975                                                                  
  1065    54.4128    2017(44)          2038.9559         2024.8217                                                                  
  1066    54.4628    2003(44)          2039.3810         2025.3458                                                                  
  1067    54.5128    1988(44)          2039.8308         2025.8700                                                                  
  1068    54.5628    2040(45)          2040.3058         2026.3942                                                                  
  1069    54.6128    2024(44)          2040.8063         2026.9185                                                                  
  1070    54.6628    1972(44)          2041.3325         2027.4426                                                                  
  1071    54.7128    2042(45)          2041.8854         2027.9668                                                                  
  1072    54.7628    2055(45)          2042.4659         2028.4910                                                                  
  1073    54.8128    2030(45)          2043.0756         2029.0151                                                                  
  1074    54.8628    2020(44)          2043.7218         2029.5393                                                                  
  1075    54.9128    2001(44)          2044.3942         2030.0635                                                                  
  1076    54.9628    1982(44)          2045.1012         2030.5876                                                                  
  1077    55.0128    1980(44)          2045.8456         2031.1118                                                                  
  1078    55.0628    1989(44)          2046.6305         2031.6360                                                                  
  1079    55.1128    2059(45)          2047.4597         2032.1602                                                                  
  1080    55.1628    1962(44)          2048.6130         2032.6843                                                                  
  1081    55.2128    1926(43)          2049.5479         2033.2085                                                                  
  1082    55.2628    1945(44)          2050.5430         2033.7327                                                                  
  1083    55.3128    1991(44)          2051.6062         2034.2568                                                                  
  1084    55.3628    1943(44)          2052.7463         2034.7810                                                                  
  1085    55.4128    2016(44)          2053.9744         2035.3052                                                                  
  1086    55.4628    2123(46)          2055.3030         2035.8293                                                                  
  1087    55.5128    2060(45)          2056.7480         2036.3535                                                                  
  1088    55.5628    2009(44)          2058.3291         2036.8777                                                                  
  1089    55.6128    2064(45)          2060.0703         2037.4019                                                                  
  1090    55.6628    2119(46)          2062.0039         2037.9260                                                                  
  1091    55.7128    2094(45)          2064.1775         2038.4502                                                                  
  1092    55.7628    2055(45)          2066.6743         2038.9744                                                                  
  1093    55.8128    2073(45)          2069.6719         2039.4985                                                                  
  1094    55.8628    2048(45)          2073.6304         2040.0228                                                                  
  1095    55.9128    2099(45)          2079.5137         2040.5470                                                                  
  1096    55.9628    2093(45)          2089.7722         2041.0712                                                                  
  1097    56.0128    2113(45)          2109.6289         2041.5953                                                                  
  1098    56.0628    2125(46)          2149.2571         2042.1195                                                                  
  1099    56.1128    2243(47)          2226.4534         2042.6437                                                                  
  1100    56.1628    2383(48)          2368.3901         2043.1678                                                                  
  1101    56.2128    2539(50)          2610.5151         2043.6920                                                                  
  1102    56.2628    2873(53)          2990.0950         2044.2162                                                                  
  1103    56.3128    3359(57)          3533.7949         2044.7404                                                                  
  1104    56.3628    4251(65)          4242.1846         2045.2645                                                                  
  1105    56.4128    4968(70)          5077.3853         2045.7887                                                                  
  1106    56.4628    5974(77)          5961.9863         2046.3129                                                                  
  1107    56.5128    6737(82)          6792.1792         2046.8370                                                                  
  1108    56.5628    7531(86)          7465.3779         2047.3612                                                                  
  1109    56.6128    8080(89)          7912.9102         2047.8854                                                                  
  1110    56.6628    8251(90)          8115.6548         2048.4097                                                                  
  1111    56.7128    8318(91)          8094.8525         2048.9338                                                                  
  1112    56.7628    8011(89)          7899.4849         2049.4580                                                                  
  1113    56.8128    7715(87)          7595.9053         2049.9822                                                                  
  1114    56.8628    7423(86)          7261.0674         2050.5063                                                                  
  1115    56.9128    7114(84)          6965.9541         2051.0305                                                                  
  1116    56.9628    6803(82)          6754.5938         2051.5547                                                                  
  1117    57.0128    6731(82)          6627.0352         2052.0789                                                                  
  1118    57.0628    6745(82)          6532.9541         2052.6030                                                                  
  1119    57.1128    6541(80)          6385.1611         2053.1272                                                                  
  1120    57.1628    6249(79)          6099.2451         2053.6514                                                                  
  1121    57.2128    5900(76)          5639.0176         2054.1755                                                                  
  1122    57.2628    5226(72)          5032.2871         2054.6997                                                                  
  1123    57.3128    4688(68)          4356.3252         2055.2239                                                                  
  1124    57.3628    3898(62)          3705.1631         2055.7480                                                                  
  1125    57.4128    3260(57)          3153.2563         2056.2722                                                                  
  1126    57.4628    2752(52)          2736.3955         2056.7964                                                                  
  1127    57.5128    2448(49)          2453.5728         2057.3206                                                                  
  1128    57.5628    2227(47)          2280.1824         2057.8447                                                                  
  1129    57.6128    2101(45)          2183.4802         2058.3689                                                                  
  1130    57.6628    2060(45)          2133.8835         2058.8931                                                                  
  1131    57.7128    2074(45)          2109.9663         2059.4172                                                                  
  1132    57.7628    2062(45)          2098.6431         2059.9414                                                                  
  1133    57.8128    2035(45)          2092.9888         2060.4656                                                                  
  1134    57.8628    2045(45)          2089.8218         2060.9897                                                                  
  1135    57.9128    2100(45)          2087.6870         2061.5139                                                                  
  1136    57.9628    2048(45)          2086.1030         2062.0381                                                                  
  1137    58.0128    2027(45)          2084.8623         2062.5623                                                                  
  1138    58.0628    1974(44)          2083.8723         2063.0864                                                                  
  1139    58.1128    2022(44)          2083.0815         2063.6106                                                                  
  1140    58.1628    1990(44)          2082.5049         2064.1348                                                                  
  1141    58.2128    2079(45)          2082.0166         2064.6589                                                                  
  1142    58.2628    2028(45)          2081.6780         2065.1831                                                                  
  1143    58.3128    2034(45)          2081.4062         2065.7073                                                                  
  1144    58.3628    2035(45)          2081.2200         2066.2314                                                                  
  1145    58.4128    2017(44)          2081.1077         2066.7556                                                                  
  1146    58.4628    2100(45)          2081.0601         2067.2798                                                                  
  1147    58.5128    2061(45)          2081.0686         2067.8040                                                                  
  1148    58.5628    2074(45)          2081.1267         2068.3281                                                                  
  1149    58.6128    1994(44)          2081.2786         2068.8525                                                                  
  1150    58.6628    2077(45)          2081.4194         2069.3765                                                                  
  1151    58.7128    2086(45)          2081.5952         2069.9006                                                                  
  1152    58.7628    2023(44)          2081.8022         2070.4248                                                                  
  1153    58.8128    2053(45)          2082.0369         2070.9490                                                                  
  1154    58.8628    2068(45)          2082.2969         2071.4734                                                                  
  1155    58.9128    2066(45)          2082.5793         2071.9976                                                                  
  1156    58.9628    2025(45)          2082.8826         2072.5217                                                                  
  1157    59.0128    2014(44)          2083.2046         2073.0459                                                                  
  1158    59.0628    2011(44)          2083.5818         2073.5701                                                                  
  1159    59.1128    1967(44)          2083.9912         2074.0942                                                                  
  1160    59.1628    2004(44)          2084.3613         2074.6184                                                                  
  1161    59.2128    1997(44)          2084.7446         2075.1426                                                                  
  1162    59.2628    2035(45)          2085.1406         2075.6667                                                                  
  1163    59.3128    2085(45)          2085.5479         2076.1909                                                                  
  1164    59.3628    2061(45)          2085.9658         2076.7151                                                                  
  1165    59.4128    2064(45)          2086.3938         2077.2393                                                                  
  1166    59.4628    2080(45)          2086.8311         2077.7634                                                                  
  1167    59.5128    2051(45)          2087.2771         2078.2876                                                                  
  1168    59.5628    2059(45)          2087.7312         2078.8118                                                                  
  1169    59.6128    2086(45)          2088.1931         2079.3359                                                                  
  1170    59.6628    2053(45)          2088.6624         2079.8601                                                                  
  1171    59.7128    2051(45)          2089.1384         2080.3843                                                                  
  1172    59.7628    2033(45)          2089.6213         2080.9084                                                                  
  1173    59.8128    2020(44)          2090.1104         2081.4326                                                                  
  1174    59.8628    2014(44)          2090.6355         2081.9568                                                                  
  1175    59.9128    2100(45)          2091.2083         2082.4810                                                                  
  1176    59.9628    2102(45)          2091.7153         2083.0051                                                                  
  1177    60.0128    2111(45)          2092.2278         2083.5293                                                                  
  1178    60.0628    2064(45)          2092.7456         2084.0535                                                                  
  1179    60.1128    2047(45)          2093.2683         2084.5776                                                                  
  1180    60.1628    2022(44)          2093.7959         2085.1018                                                                  
  1181    60.2128    2039(45)          2094.3281         2085.6260                                                                  
  1182    60.2628    2128(46)          2094.8853         2086.1501                                                                  
  1183    60.3128    2068(45)          2095.4265         2086.6743                                                                  
  1184    60.3628    2039(45)          2095.9724         2087.1985                                                                  
  1185    60.4128    2059(45)          2096.3298         2087.7227                                                                  
  1186    60.4628    2045(45)          2096.8855         2088.2468                                                                  
  1187    60.5128    2043(45)          2097.4453         2088.7710                                                                  
  1188    60.5628    2101(45)          2098.0093         2089.2952                                                                  
  1189    60.6128    2038(45)          2098.5774         2089.8193                                                                  
  1190    60.6628    2200(46)          2099.1497         2090.3435                                                                  
  1191    60.7128    2108(45)          2099.7261         2090.8677                                                                  
  1192    60.7628    2056(45)          2100.3655         2091.3918                                                                  
  1193    60.8128    2087(45)          2100.9502         2091.9160                                                                  
  1194    60.8628    2096(45)          2101.5393         2092.4402                                                                  
  1195    60.9128    2083(45)          2102.1323         2092.9644                                                                  
  1196    60.9628    2056(45)          2102.7295         2093.4885                                                                  
  1197    61.0128    2058(45)          2103.3311         2094.0127                                                                  
  1198    61.0628    2106(45)          2103.9368         2094.5369                                                                  
  1199    61.1128    2112(45)          2104.5469         2095.0613                                                                  
  1200    61.1628    2050(45)          2105.1614         2095.5854                                                                  
  1201    61.2128    2093(45)          2105.7798         2096.1094                                                                  
  1202    61.2628    2120(46)          2106.4033         2096.6338                                                                  
  1203    61.3128    2097(45)          2107.0310         2097.1577                                                                  
  1204    61.3628    2196(46)          2107.6638         2097.6821                                                                  
  1205    61.4128    2200(46)          2108.3010         2098.2063                                                                  
  1206    61.4628    2300(47)          2108.9431         2098.7305                                                                  
  1207    61.5128    2296(47)          2109.5903         2099.2546                                                                  
  1208    61.5628    2201(46)          2110.2427         2099.7788                                                                  
  1209    61.6128    2212(47)          2110.9004         2100.3030                                                                  
  1210    61.6628    2153(46)          2111.5635         2100.8271                                                                  
  1211    61.7128    2100(45)          2112.2322         2101.3513                                                                  
  1212    61.7628    2087(45)          2112.9065         2101.8755                                                                  
  1213    61.8128    2128(46)          2113.5869         2102.3997                                                                  
  1214    61.8628    2054(45)          2114.2734         2102.9238                                                                  
  1215    61.9128    2121(46)          2114.9661         2103.4480                                                                  
  1216    61.9628    2131(46)          2115.6655         2103.9722                                                                  
  1217    62.0128    2074(45)          2116.3718         2104.4963                                                                  
  1218    62.0628    2095(45)          2117.0850         2105.0205                                                                  
  1219    62.1128    2048(45)          2117.8054         2105.5447                                                                  
  1220    62.1628    2010(44)          2118.5334         2106.0688                                                                  
  1221    62.2128    2095(45)          2119.2695         2106.5930                                                                  
  1222    62.2628    2098(45)          2120.0137         2107.1172                                                                  
  1223    62.3128    2111(45)          2120.6047         2107.6414                                                                  
  1224    62.3628    2114(45)          2121.3674         2108.1655                                                                  
  1225    62.4128    2179(46)          2122.1392         2108.6897                                                                  
  1226    62.4628    2126(46)          2122.9207         2109.2139                                                                  
  1227    62.5128    2045(45)          2123.7124         2109.7380                                                                  
  1228    62.5628    2133(46)          2124.5144         2110.2622                                                                  
  1229    62.6128    2100(45)          2125.3279         2110.7864                                                                  
  1230    62.6628    2058(45)          2126.1526         2111.3105                                                                  
  1231    62.7128    2156(46)          2126.9895         2111.8347                                                                  
  1232    62.7628    2181(46)          2127.8394         2112.3589                                                                  
  1233    62.8128    2130(46)          2128.7024         2112.8831                                                                  
  1234    62.8628    2157(46)          2129.4968         2113.4072                                                                  
  1235    62.9128    2075(45)          2130.3083         2113.9314                                                                  
  1236    62.9628    2090(45)          2131.2173         2114.4556                                                                  
  1237    63.0128    2101(45)          2132.1426         2114.9797                                                                  
  1238    63.0628    2024(44)          2133.0850         2115.5039                                                                  
  1239    63.1128    2070(45)          2134.0457         2116.0281                                                                  
  1240    63.1628    2171(46)          2135.0254         2116.5522                                                                  
  1241    63.2128    2079(45)          2136.0256         2117.0764                                                                  
  1242    63.2628    2133(46)          2137.0474         2117.6006                                                                  
  1243    63.3128    2144(46)          2138.0615         2118.1248                                                                  
  1244    63.3628    2042(45)          2139.1304         2118.6489                                                                  
  1245    63.4128    2042(45)          2140.2249         2119.1731                                                                  
  1246    63.4628    1957(44)          2141.3467         2119.6973                                                                  
  1247    63.5128    2106(45)          2142.5112         2120.2214                                                                  
  1248    63.5628    2115(45)          2143.6929         2120.7456                                                                  
  1249    63.6128    2027(45)          2144.9077         2121.2700                                                                  
  1250    63.6628    2172(46)          2146.1575         2121.7942                                                                  
  1251    63.7128    2176(46)          2147.4446         2122.3184                                                                  
  1252    63.7628    2079(45)          2148.7717         2122.8425                                                                  
  1253    63.8128    2162(46)          2150.1484         2123.3667                                                                  
  1254    63.8628    2175(46)          2151.5649         2123.8909                                                                  
  1255    63.9128    2173(46)          2153.0454         2124.4150                                                                  
  1256    63.9628    2139(46)          2154.5647         2124.9392                                                                  
  1257    64.0128    2085(45)          2156.1416         2125.4634                                                                  
  1258    64.0628    2122(46)          2157.7827         2125.9875                                                                  
  1259    64.1128    2222(47)          2159.4888         2126.5117                                                                  
  1260    64.1628    2163(46)          2161.2671         2127.0359                                                                  
  1261    64.2128    2230(47)          2163.1243         2127.5601                                                                  
  1262    64.2628    2148(46)          2165.0803         2128.0842                                                                  
  1263    64.3128    2228(47)          2167.1162         2128.6084                                                                  
  1264    64.3628    2137(46)          2169.2234         2129.1326                                                                  
  1265    64.4128    2228(47)          2171.4722         2129.6567                                                                  
  1266    64.4628    2185(46)          2173.8430         2130.1809                                                                  
  1267    64.5128    2227(47)          2176.3479         2130.7051                                                                  
  1268    64.5628    2355(48)          2178.9998         2131.2292                                                                  
  1269    64.6128    2446(49)          2181.8147         2131.7534                                                                  
  1270    64.6628    2465(49)          2184.8098         2132.2776                                                                  
  1271    64.7128    2457(49)          2188.0056         2132.8018                                                                  
  1272    64.7628    2570(50)          2191.4246         2133.3259                                                                  
  1273    64.8128    2499(49)          2195.0928         2133.8501                                                                  
  1274    64.8628    2445(49)          2199.0420         2134.3743                                                                  
  1275    64.9128    2360(48)          2203.3064         2134.8984                                                                  
  1276    64.9628    2450(49)          2207.9287         2135.4226                                                                  
  1277    65.0128    2405(49)          2212.9578         2135.9468                                                                  
  1278    65.0628    2358(48)          2218.4502         2136.4709                                                                  
  1279    65.1128    2396(48)          2224.4771         2136.9951                                                                  
  1280    65.1628    2454(49)          2231.1194         2137.5193                                                                  
  1281    65.2128    2375(48)          2238.4531         2138.0435                                                                  
  1282    65.2628    2531(50)          2246.6553         2138.5676                                                                  
  1283    65.3128    2469(49)          2255.8569         2139.0918                                                                  
  1284    65.3628    2449(49)          2266.2847         2139.6160                                                                  
  1285    65.4128    2455(49)          2278.3071         2140.1401                                                                  
  1286    65.4628    2313(48)          2292.6902         2140.6643                                                                  
  1287    65.5128    2340(48)          2311.2434         2141.1885                                                                  
  1288    65.5628    2354(48)          2338.4316         2141.7126                                                                  
  1289    65.6128    2487(49)          2384.6082         2142.2368                                                                  
  1290    65.6628    2457(49)          2472.3379         2142.7610                                                                  
  1291    65.7128    2572(50)          2644.8477         2143.2852                                                                  
  1292    65.7628    2752(52)          2975.0850         2143.8096                                                                  
  1293    65.8128    3328(57)          3567.8772         2144.3335                                                                  
  1294    65.8628    4295(65)          4545.5811         2144.8579                                                                  
  1295    65.9128    5740(75)          6007.2544         2145.3818                                                                  
  1296    65.9628    7659(87)          7968.5332         2145.9062                                                                  
  1297    66.0128    10125(100)         10301.6094         2146.4304                                                                
  1298    66.0628    12465(111)         12719.1367         2146.9546                                                                
  1299    66.1128    14499(120)         14833.4531         2147.4788                                                                
  1300    66.1628    15696(125)         16293.1738         2148.0027                                                                
  1301    66.2128    16349(127)         16978.7090         2148.5271                                                                
  1302    66.2628    16614(128)         17147.6777         2149.0513                                                                
  1303    66.3128    17129(130)         17384.2246         2149.5754                                                                
  1304    66.3628    18224(134)         18357.5859         2150.0996                                                                
  1305    66.4128    20633(143)         20547.1367         2150.6238                                                                
  1306    66.4628    24149(155)         24053.5020         2151.1479                                                                
  1307    66.5128    28786(169)         28555.8926         2151.6721                                                                
  1308    66.5628    33857(184)         33438.0625         2152.1963                                                                
  1309    66.6128    38714(196)         38046.1680         2152.7205                                                                
  1310    66.6628    42724(206)         41940.9609         2153.2446                                                                
  1311    66.7128    45729(213)         44952.0586         2153.7688                                                                
  1312    66.7628    47697(218)         47025.1953         2154.2930                                                                
  1313    66.8128    48147(219)         48096.2344         2154.8171                                                                
  1314    66.8628    47448(217)         48072.5938         2155.3413                                                                
  1315    66.9128    46422(215)         46873.4531         2155.8655                                                                
  1316    66.9628    43989(209)         44470.1367         2156.3896                                                                
  1317    67.0128    40617(201)         40928.3438         2156.9138                                                                
  1318    67.0628    36554(191)         36449.0195         2157.4380                                                                
  1319    67.1128    31522(177)         31364.4297         2157.9622                                                                
  1320    67.1628    26301(162)         26079.9961         2158.4863                                                                
  1321    67.2128    21323(146)         20982.1465         2159.0105                                                                
  1322    67.2628    16700(129)         16380.2031         2159.5347                                                                
  1323    67.3128    12585(112)         12473.0791         2160.0588                                                                
  1324    67.3628    9203(95)          9343.4199         2160.5830                                                                  
  1325    67.4128    6677(81)          6976.1953         2161.1072                                                                  
  1326    67.4628    4848(69)          5282.6382         2161.6313                                                                  
  1327    67.5128    3706(60)          4135.6108         2162.1555                                                                  
  1328    67.5628    3026(55)          3398.4536         2162.6797                                                                  
  1329    67.6128    2742(52)          2946.9072         2163.2039                                                                  
  1330    67.6628    2554(50)          2681.5225         2163.7280                                                                  
  1331    67.7128    2322(48)          2529.8308         2164.2522                                                                  
  1332    67.7628    2314(48)          2443.7837         2164.7764                                                                  
  1333    67.8128    2279(47)          2393.7576         2165.3005                                                                  
  1334    67.8628    2234(47)          2362.7837         2165.8247                                                                  
  1335    67.9128    2363(48)          2341.8804         2166.3489                                                                  
  1336    67.9628    2351(48)          2326.2507         2166.8730                                                                  
  1337    68.0128    2325(48)          2313.7219         2167.3975                                                                  
  1338    68.0628    2326(48)          2303.1970         2167.9214                                                                  
  1339    68.1128    2351(48)          2294.1187         2168.4456                                                                  
  1340    68.1628    2274(47)          2286.1626         2168.9697                                                                  
  1341    68.2128    2316(48)          2279.1724         2169.4939                                                                  
  1342    68.2628    2265(47)          2272.9900         2170.0183                                                                  
  1343    68.3128    2284(47)          2267.6101         2170.5422                                                                  
  1344    68.3628    2314(48)          2262.7383         2171.0667                                                                  
  1345    68.4128    2251(47)          2258.4033         2171.5906                                                                  
  1346    68.4628    2249(47)          2254.5425         2172.1150                                                                  
  1347    68.5128    2290(47)          2251.1033         2172.6392                                                                  
  1348    68.5628    2278(47)          2248.0095         2173.1631                                                                  
  1349    68.6128    2231(47)          2245.2852         2173.6875                                                                  
  1350    68.6628    2231(47)          2242.8655         2174.2114                                                                  
  1351    68.7128    2155(46)          2240.7217         2174.7358                                                                  
  1352    68.7628    2178(46)          2238.8293         2175.2600                                                                  
  1353    68.8128    2279(47)          2237.1675         2175.7842                                                                  
  1354    68.8628    2252(47)          2235.7175         2176.3083                                                                  
  1355    68.9128    2163(46)          2234.4646         2176.8325                                                                  
  1356    68.9628    2293(47)          2233.3943         2177.3567                                                                  
  1357    69.0128    2230(47)          2232.4961         2177.8809                                                                  
  1358    69.0628    2166(46)          2231.7607         2178.4050                                                                  
  1359    69.1128    2212(47)          2231.1802         2178.9292                                                                  
  1360    69.1628    2123(46)          2230.7490         2179.4534                                                                  
  1361    69.2128    2201(46)          2230.4624         2179.9775                                                                  
  1362    69.2628    2234(47)          2230.3188         2180.5017                                                                  
  1363    69.3128    2271(47)          2230.3186         2181.0259                                                                  
  1364    69.3628    2133(46)          2230.4651         2181.5500                                                                  
  1365    69.4128    2123(46)          2230.7676         2182.0742                                                                  
  1366    69.4628    2243(47)          2231.2432         2182.5984                                                                  
  1367    69.5128    2203(46)          2231.9285         2183.1226                                                                  
  1368    69.5628    2255(47)          2232.8601         2183.6467                                                                  
  1369    69.6128    2102(45)          2234.1260         2184.1709                                                                  
  1370    69.6628    2172(46)          2235.8545         2184.6951                                                                  
  1371    69.7128    2124(46)          2238.2417         2185.2192                                                                  
  1372    69.7628    2271(47)          2241.5793         2185.7434                                                                  
  1373    69.8128    2223(47)          2246.2854         2186.2676                                                                  
  1374    69.8628    2205(46)          2252.9224         2186.7917                                                                  
  1375    69.9128    2212(47)          2262.3008         2187.3159                                                                  
  1376    69.9628    2276(47)          2275.3953         2187.8401                                                                  
  1377    70.0128    2246(47)          2293.4165         2188.3643                                                                  
  1378    70.0628    2184(46)          2317.7693         2188.8884                                                                  
  1379    70.1128    2284(47)          2350.0112         2189.4126                                                                  
  1380    70.1628    2237(47)          2391.7310         2189.9368                                                                  
  1381    70.2128    2277(47)          2444.5859         2190.4609                                                                  
  1382    70.2628    2384(48)          2510.1892         2190.9851                                                                  
  1383    70.3128    2458(49)          2590.4829         2191.5093                                                                  
  1384    70.3628    2519(50)          2688.4636         2192.0334                                                                  
  1385    70.4128    2614(51)          2809.3313         2192.5576                                                                  
  1386    70.4628    2841(53)          2962.2456         2193.0818                                                                  
  1387    70.5128    3087(55)          3161.3740         2193.6060                                                                  
  1388    70.5628    3452(58)          3425.2061         2194.1301                                                                  
  1389    70.6128    3578(59)          3772.4438         2194.6543                                                                  
  1390    70.6628    4047(63)          4213.3398         2195.1785                                                                  
  1391    70.7128    4534(67)          4739.8965         2195.7026                                                                  
  1392    70.7628    5136(71)          5318.7334         2196.2271                                                                  
  1393    70.8128    5775(75)          5894.7739         2196.7510                                                                  
  1394    70.8628    6235(78)          6409.1011         2197.2754                                                                  
  1395    70.9128    6707(81)          6828.3408         2197.7993                                                                  
  1396    70.9628    7095(84)          7179.5044         2198.3237                                                                  
  1397    71.0128    7613(87)          7564.2939         2198.8479                                                                  
  1398    71.0628    8160(90)          8128.1396         2199.3721                                                                  
  1399    71.1128    9068(95)          8992.9365         2199.8962                                                                  
  1400    71.1628    10115(100)         10188.7588         2200.4204                                                                
  1401    71.2128    11726(108)         11618.1025         2200.9446                                                                
  1402    71.2628    13148(114)         13066.7432         2201.4688                                                                
  1403    71.3128    14484(120)         14269.3115         2201.9929                                                                
  1404    71.3628    15477(124)         15013.2656         2202.5171                                                                
  1405    71.4128    15723(125)         15218.8691         2203.0413                                                                
  1406    71.4628    15389(124)         14928.5352         2203.5654                                                                
  1407    71.5128    14934(122)         14243.8789         2204.0896                                                                
  1408    71.5628    14053(118)         13274.8535         2204.6138                                                                
  1409    71.6128    12686(112)         12115.8965         2205.1379                                                                
  1410    71.6628    11286(106)         10842.0508         2205.6621                                                                
  1411    71.7128    9695(98)          9520.2812         2206.1863                                                                  
  1412    71.7628    8465(92)          8228.2930         2206.7104                                                                  
  1413    71.8128    7355(85)          7054.1650         2207.2346                                                                  
  1414    71.8628    6128(78)          6077.3164         2207.7588                                                                  
  1415    71.9128    5219(72)          5345.6260         2208.2830                                                                  
  1416    71.9628    4874(69)          4862.3110         2208.8071                                                                  
  1417    72.0128    4383(66)          4583.7070         2209.3313                                                                  
  1418    72.0628    4275(65)          4431.4785         2209.8555                                                                  
  1419    72.1128    4099(64)          4315.5938         2210.3796                                                                  
  1420    72.1628    3795(61)          4162.6680         2210.9038                                                                  
  1421    72.2128    3682(60)          3938.8203         2211.4280                                                                  
  1422    72.2628    3432(58)          3652.9258         2211.9521                                                                  
  1423    72.3128    3086(55)          3340.0376         2212.4763                                                                  
  1424    72.3628    2858(53)          3040.7266         2213.0005                                                                  
  1425    72.4128    2641(51)          2786.4697         2213.5247                                                                  
  1426    72.4628    2450(49)          2592.3474         2214.0488                                                                  
  1427    72.5128    2340(48)          2458.0356         2214.5730                                                                  
  1428    72.5628    2262(47)          2372.9827         2215.0972                                                                  
  1429    72.6128    2202(46)          2323.1436         2215.6213                                                                  
  1430    72.6628    2276(47)          2295.6394         2216.1455                                                                  
  1431    72.7128    2294(47)          2280.8958         2216.6697                                                                  
  1432    72.7628    2310(48)          2272.8472         2217.1938                                                                  
  1433    72.8128    2240(47)          2268.1025         2217.7180                                                                  
  1434    72.8628    2227(47)          2264.9592         2218.2422                                                                  
  1435    72.9128    2266(47)          2262.6350         2218.7664                                                                  
  1436    72.9628    2267(47)          2260.7998         2219.2905                                                                  
  1437    73.0128    2275(47)          2259.2764         2219.8149                                                                  
  1438    73.0628    2277(47)          2258.0044         2220.3389                                                                  
  1439    73.1128    2161(46)          2256.9766         2220.8633                                                                  
  1440    73.1628    2217(47)          2255.7480         2221.0356                                                                  
  1441    73.2128    2300(47)          2254.5703         2221.1086                                                                  
  1442    73.2628    2161(46)          2253.5317         2221.1819                                                                  
  1443    73.3128    2248(47)          2252.6179         2221.2551                                                                  
  1444    73.3628    2217(47)          2251.8508         2221.3284                                                                  
  1445    73.4128    2186(46)          2251.1514         2221.4014                                                                  
  1446    73.4628    2235(47)          2250.5459         2221.4746                                                                  
  1447    73.5128    2289(47)          2250.0474         2221.5479                                                                  
  1448    73.5628    2232(47)          2249.6111         2221.6208                                                                  
  1449    73.6128    2203(46)          2249.2527         2221.6941                                                                  
  1450    73.6628    2301(47)          2248.9692         2221.7673                                                                  
  1451    73.7128    2351(48)          2248.7581         2221.8403                                                                  
  1452    73.7628    2319(48)          2248.6196         2221.9136                                                                  
  1453    73.8128    2256(47)          2248.5549         2221.9868                                                                  
  1454    73.8628    2207(46)          2248.5674         2222.0601                                                                  
  1455    73.9128    2215(47)          2248.6658         2222.1331                                                                  
  1456    73.9628    2215(47)          2248.8674         2222.2063                                                                  
  1457    74.0128    2334(48)          2249.2041         2222.2795                                                                  
  1458    74.0628    2294(47)          2249.7339         2222.3525                                                                  
  1459    74.1128    2232(47)          2250.5623         2222.4258                                                                  
  1460    74.1628    2283(47)          2251.8701         2222.4990                                                                  
  1461    74.2128    2251(47)          2253.9607         2222.5720                                                                  
  1462    74.2628    2347(48)          2257.3228         2222.6453                                                                  
  1463    74.3128    2297(47)          2262.7097         2222.7185                                                                  
  1464    74.3628    2243(47)          2271.2400         2222.7915                                                                  
  1465    74.4128    2262(47)          2284.4890         2222.8647                                                                  
  1466    74.4628    2332(48)          2304.5862         2222.9380                                                                  
  1467    74.5128    2319(48)          2334.2188         2223.0112                                                                  
  1468    74.5628    2345(48)          2376.6150         2223.0842                                                                  
  1469    74.6128    2485(49)          2435.3911         2223.1575                                                                  
  1470    74.6628    2463(49)          2514.2083         2223.2307                                                                  
  1471    74.7128    2546(50)          2616.4172         2223.3037                                                                  
  1472    74.7628    2695(51)          2744.4551         2223.3770                                                                  
  1473    74.8128    2845(53)          2899.2986         2223.4502                                                                  
  1474    74.8628    3052(55)          3080.0537         2223.5232                                                                  
  1475    74.9128    3249(57)          3283.4331         2223.5964                                                                  
  1476    74.9628    3658(60)          3503.8735         2223.6697                                                                  
  1477    75.0128    3984(63)          3733.5205         2223.7429                                                                  
  1478    75.0628    4265(65)          3962.8528         2223.8159                                                                  
  1479    75.1128    4313(65)          4181.6641         2223.8892                                                                  
  1480    75.1628    4445(66)          4379.9062         2223.9624                                                                  
  1481    75.2128    4720(68)          4548.9834         2224.0354                                                                  
  1482    75.2628    4917(70)          4682.1602         2224.1086                                                                  
  1483    75.3128    4824(69)          4774.9199         2224.1819                                                                  
  1484    75.3628    4906(70)          4825.0381         2224.2549                                                                  
  1485    75.4128    4810(69)          4832.5605         2224.3281                                                                  
  1486    75.4628    4746(68)          4799.8271         2224.4014                                                                  
  1487    75.5128    4559(67)          4731.1523         2224.4746                                                                  
  1488    75.5628    4399(66)          4632.2246         2224.5476                                                                  
  1489    75.6128    4286(65)          4509.3423         2224.6208                                                                  
  1490    75.6628    4198(64)          4368.7969         2224.6941                                                                  
  1491    75.7128    4073(63)          4216.3105         2224.7671                                                                  
  1492    75.7628    3823(61)          4056.8953         2224.8403                                                                  
  1493    75.8128    3873(62)          3894.7615         2224.9136                                                                  
  1494    75.8628    3829(61)          3733.3755         2224.9866                                                                  
  1495    75.9128    3769(61)          3575.9209         2225.0598                                                                  
  1496    75.9628    3479(58)          3425.4463         2225.1331                                                                  
  1497    76.0128    3393(58)          3285.6289         2225.2061                                                                  
  1498    76.0628    3398(58)          3161.3176         2225.2793                                                                  
  1499    76.1128    3126(55)          3059.1865         2225.3525                                                                  
  1500    76.1628    3078(55)          2988.2366         2225.4258                                                                  
  1501    76.2128    3011(54)          2959.1675         2225.4988                                                                  
  1502    76.2628    3013(54)          2982.4707         2225.5720                                                                  
  1503    76.3128    3004(54)          3064.6533         2225.6453                                                                  
  1504    76.3628    3202(56)          3203.5530         2225.7183                                                                  
  1505    76.4128    3342(57)          3384.1309         2225.7915                                                                  
  1506    76.4628    3570(59)          3577.4409         2225.8647                                                                  
  1507    76.5128    3750(61)          3743.9258         2225.9377                                                                  
  1508    76.5628    3777(61)          3842.2100         2226.0110                                                                  
  1509    76.6128    3768(61)          3841.9268         2226.0842                                                                  
  1510    76.6628    3743(61)          3735.7380         2226.1575                                                                  
  1511    76.7128    3486(59)          3542.4268         2226.2305                                                                  
  1512    76.7628    3363(57)          3298.3135         2226.3037                                                                  
  1513    76.8128    3203(56)          3043.5974         2226.3770                                                                  
  1514    76.8628    2997(54)          2811.4731         2226.4500                                                                  
  1515    76.9128    2724(52)          2622.2441         2226.5232                                                                  
  1516    76.9628    2685(51)          2482.4241         2226.5964                                                                  
  1517    77.0128    2603(51)          2388.0444         2226.6694                                                                  
  1518    77.0628    2598(50)          2329.4460         2226.7427                                                                  
  1519    77.1128    2492(49)          2295.7188         2226.8159                                                                  
  1520    77.1628    2512(50)          2277.5508         2226.8889                                                                  
  1521    77.2128    2556(50)          2268.2378         2226.9622                                                                  
  1522    77.2628    2520(50)          2263.6150         2227.0354                                                                  
  1523    77.3128    2549(50)          2261.2571         2227.1086                                                                  
  1524    77.3628    2601(51)          2260.0044         2227.1816                                                                  
  1525    77.4128    2558(50)          2259.3003         2227.2549                                                                  
  1526    77.4628    2616(51)          2258.8992         2227.3281                                                                  
  1527    77.5128    2626(51)          2258.6953         2227.4011                                                                  
  1528    77.5628    2505(50)          2258.6426         2227.4744                                                                  
  1529    77.6128    2544(50)          2258.7170         2227.5476                                                                  
  1530    77.6628    2466(49)          2258.9180         2227.6206                                                                  
  1531    77.7128    2470(49)          2259.2322         2227.6938                                                                  
  1532    77.7628    2449(49)          2259.6279         2227.7671                                                                  
  1533    77.8128    2448(49)          2260.1218         2227.8403                                                                  
  1534    77.8628    2496(49)          2260.7126         2227.9133                                                                  
  1535    77.9128    2385(48)          2261.4011         2227.9866                                                                  
  1536    77.9628    2402(49)          2262.1895         2228.0598                                                                  
  1537    78.0128    2440(49)          2263.0913         2228.1328                                                                  
  1538    78.0628    2444(49)          2263.6016         2228.2061                                                                  
  1539    78.1128    2457(49)          2264.7205         2228.2793                                                                  
  1540    78.1628    2459(49)          2265.9624         2228.3523                                                                  
  1541    78.2128    2487(49)          2267.3384         2228.4255                                                                  
  1542    78.2628    2553(50)          2268.8623         2228.4988                                                                  
  1543    78.3128    2494(49)          2270.5593         2228.5720                                                                  
  1544    78.3628    2462(49)          2272.4419         2228.6450                                                                  
  1545    78.4128    2456(49)          2274.5581         2228.7183                                                                  
  1546    78.4628    2450(49)          2276.9827         2228.7915                                                                  
  1547    78.5128    2397(48)          2279.8223         2228.8645                                                                  
  1548    78.5628    2397(48)          2283.2935         2228.9377                                                                  
  1549    78.6128    2357(48)          2287.7717         2229.0110                                                                  
  1550    78.6628    2450(49)          2293.9102         2229.0840                                                                  
  1551    78.7128    2390(48)          2302.8228         2229.1572                                                                  
  1552    78.7628    2351(48)          2316.3354         2229.2305                                                                  
  1553    78.8128    2396(48)          2337.3291         2229.3037                                                                  
  1554    78.8628    2379(48)          2370.1736         2229.3767                                                                  
  1555    78.9128    2429(49)          2421.1548         2229.4500                                                                  
  1556    78.9628    2361(48)          2498.9221         2229.5232                                                                  
  1557    79.0128    2494(49)          2614.6621         2229.5962                                                                  
  1558    79.0628    2707(52)          2781.9648         2229.6694                                                                  
  1559    79.1128    2867(53)          3016.3169         2229.7427                                                                  
  1560    79.1628    3090(55)          3333.4233         2229.8157                                                                  
  1561    79.2128    3496(59)          3747.7271         2229.8889                                                                  
  1562    79.2628    4131(64)          4269.5908         2229.9622                                                                  
  1563    79.3128    4788(69)          4902.6777         2230.0352                                                                  
  1564    79.3628    5687(75)          5642.0371         2230.1084                                                                  
  1565    79.4128    6682(81)          6471.9419         2230.1816                                                                  
  1566    79.4628    7604(87)          7366.6226         2230.2549                                                                  
  1567    79.5128    8691(93)          8290.7910         2230.3279                                                                  
  1568    79.5628    9500(97)          9202.9795         2230.4011                                                                  
  1569    79.6128    10368(101)         10060.4277         2230.4744                                                                
  1570    79.6628    11022(104)         10823.6953         2230.5474                                                                
  1571    79.7128    11573(107)         11462.9238         2230.6206                                                                
  1572    79.7628    11938(109)         11959.8945         2230.6938                                                                
  1573    79.8128    12213(110)         12307.8193         2230.7668                                                                
  1574    79.8628    12289(110)         12508.5898         2230.8401                                                                
  1575    79.9128    12297(110)         12569.3867         2230.9133                                                                
  1576    79.9628    12067(109)         12500.7520         2230.9866                                                                
  1577    80.0128    11865(108)         12315.0488         2231.0596                                                                
  1578    80.0628    11503(107)         12025.5029         2231.1328                                                                
  1579    80.1128    11268(106)         11645.0410         2231.2061                                                                
  1580    80.1628    10946(104)         11186.1143         2231.2791                                                                
  1581    80.2128    10401(101)         10660.4561         2231.3523                                                                
  1582    80.2628    9779(98)         10080.5996         2231.4255                                                                  
  1583    80.3128    9438(97)          9461.8027         2231.4985                                                                  
  1584    80.3628    8984(94)          8824.8047         2231.5718                                                                  
  1585    80.4128    8413(91)          8200.3203         2231.6450                                                                  
  1586    80.4628    7900(88)          7632.0513         2231.7183                                                                  
  1587    80.5128    7389(85)          7179.5361         2231.7913                                                                  
  1588    80.5628    7158(84)          6915.5859         2231.8645                                                                  
  1589    80.6128    7078(84)          6916.3564         2231.9377                                                                  
  1590    80.6628    7474(86)          7241.6963         2232.0107                                                                  
  1591    80.7128    8097(89)          7907.7583         2232.0840                                                                  
  1592    80.7628    9161(95)          8860.0332         2232.1572                                                                  
  1593    80.8128    10324(101)          9959.9111         2232.2302                                                                
  1594    80.8628    11354(106)         10996.2412         2232.3035                                                                
  1595    80.9128    11862(108)         11727.6514         2232.3767                                                                
  1596    80.9628    12018(109)         11951.9277         2232.4497                                                                
  1597    81.0128    11752(108)         11577.6406         2232.5229                                                                
  1598    81.0628    10846(104)         10653.3457         2232.5962                                                                
  1599    81.1128    9411(97)          9342.6250         2232.6694                                                                  
  1600    81.1628    7917(88)          7864.9375         2232.7424                                                                  
  1601    81.2128    6325(79)          6426.7578         2232.8157                                                                  
  1602    81.2628    5091(71)          5177.2227         2232.8889                                                                  
  1603    81.3128    4156(64)          4191.2144         2232.9619                                                                  
  1604    81.3628    3500(59)          3476.9978         2233.0352                                                                  
  1605    81.4128    2990(54)          2998.9158         2233.1084                                                                  
  1606    81.4628    2713(52)          2701.0127         2233.1814                                                                  
  1607    81.5128    2542(50)          2526.8860         2233.2546                                                                  
  1608    81.5628    2485(49)          2430.2251         2233.3279                                                                  
  1609    81.6128    2453(49)          2378.1848         2233.4011                                                                  
  1610    81.6628    2353(48)          2350.1025         2233.4741                                                                  
  1611    81.7128    2382(48)          2334.1777         2233.5474                                                                  
  1612    81.7628    2379(48)          2324.2532         2233.6206                                                                  
  1613    81.8128    2394(48)          2317.3389         2233.6936                                                                  
  1614    81.8628    2464(49)          2312.0571         2233.7668                                                                  
  1615    81.9128    2353(48)          2307.7864         2233.8401                                                                  
  1616    81.9628    2308(48)          2304.2324         2233.9131                                                                  
  1617    82.0128    2327(48)          2301.2417         2233.9863                                                                  
  1618    82.0628    2374(48)          2298.7195         2234.0596                                                                  
  1619    82.1128    2291(47)          2296.3223         2234.1328                                                                  
  1620    82.1628    2312(48)          2294.5544         2234.2058                                                                  
  1621    82.2128    2346(48)          2293.0981         2234.2791                                                                  
  1622    82.2628    2314(48)          2291.9214         2234.3523                                                                  
  1623    82.3128    2319(48)          2290.9993         2234.4253                                                                  
  1624    82.3628    2309(48)          2290.3120         2234.4985                                                                  
  1625    82.4128    2303(47)          2289.8435         2234.5718                                                                  
  1626    82.4628    2264(47)          2289.5818         2234.6448                                                                  
  1627    82.5128    2310(48)          2289.5190         2234.7180                                                                  
  1628    82.5628    2382(48)          2289.6492         2234.7913                                                                  
  1629    82.6128    2300(47)          2289.9695         2234.8645                                                                  
  1630    82.6628    2212(47)          2290.4792         2234.9375                                                                  
  1631    82.7128    2260(47)          2291.1953         2235.0107                                                                  
  1632    82.7628    2288(47)          2292.0940         2235.0840                                                                  
  1633    82.8128    2366(48)          2293.1257         2235.1570                                                                  
  1634    82.8628    2382(48)          2294.4426         2235.2302                                                                  
  1635    82.9128    2316(48)          2295.9861         2235.3035                                                                  
  1636    82.9628    2315(48)          2297.7786         2235.3765                                                                  
  1637    83.0128    2345(48)          2299.8276         2235.4497                                                                  
  1638    83.0628    2367(48)          2302.3347         2235.6943                                                                  
  1639    83.1128    2379(48)          2305.2007         2235.9817                                                                  
  1640    83.1628    2369(48)          2308.4165         2236.2690                                                                  
  1641    83.2128    2407(49)          2312.0251         2236.5564                                                                  
  1642    83.2628    2357(48)          2316.0757         2236.8438                                                                  
  1643    83.3128    2345(48)          2320.5786         2237.1311                                                                  
  1644    83.3628    2366(48)          2325.7061         2237.4185                                                                  
  1645    83.4128    2356(48)          2331.4951         2237.7058                                                                  
  1646    83.4628    2306(48)          2338.0552         2237.9932                                                                  
  1647    83.5128    2282(47)          2345.5200         2238.2808                                                                  
  1648    83.5628    2340(48)          2354.0105         2238.5681                                                                  
  1649    83.6128    2327(48)          2363.8906         2238.8555                                                                  
  1650    83.6628    2460(49)          2375.5232         2239.1428                                                                  
  1651    83.7128    2363(48)          2389.7310         2239.4302                                                                  
  1652    83.7628    2478(49)          2408.2915         2239.7175                                                                  
  1653    83.8128    2454(49)          2435.1655         2240.0049                                                                  
  1654    83.8628    2464(49)          2478.9360         2240.2922                                                                  
  1655    83.9128    2611(51)          2556.9570         2240.5796                                                                  
  1656    83.9628    2687(51)          2701.5640         2240.8669                                                                  
  1657    84.0128    2895(53)          2967.0908         2241.1543                                                                  
  1658    84.0628    3234(56)          3434.6982         2241.4417                                                                  
  1659    84.1128    3940(62)          4209.8164         2241.7290                                                                  
  1660    84.1628    5126(71)          5404.6558         2242.0164                                                                  
  1661    84.2128    6882(82)          7105.4854         2242.3040                                                                  
  1662    84.2628    9167(95)          9326.5488         2242.5913                                                                  
  1663    84.3128    11921(109)         11970.8252         2242.8787                                                                
  1664    84.3628    15035(122)         14820.0977         2243.1660                                                                
  1665    84.4128    17868(133)         17564.7344         2243.4534                                                                
  1666    84.4628    19801(140)         19884.8418         2243.7407                                                                
  1667    84.5128    21132(145)         21560.1172         2244.0281                                                                
  1668    84.5628    22126(148)         22581.9023         2244.3154                                                                
  1669    84.6128    23124(152)         23163.5020         2244.6028                                                                
  1670    84.6628    24325(155)         23599.2363         2244.8901                                                                
  1671    84.7128    24803(157)         24078.3340         2245.1775                                                                
  1672    84.7628    25512(159)         24568.4980         2245.4651                                                                
  1673    84.8128    25491(159)         24810.2773         2245.7524                                                                
  1674    84.8628    24919(157)         24424.9766         2246.0398                                                                
  1675    84.9128    23205(152)         23112.6875         2246.3271                                                                
  1676    84.9628    20790(144)         20835.7031         2246.6145                                                                
  1677    85.0128    17907(133)         17842.6660         2246.9019                                                                
  1678    85.0628    14758(121)         14541.4697         2247.1892                                                                
  1679    85.1128    11717(108)         11347.7881         2247.4766                                                                
  1680    85.1628    9117(95)          8580.7061         2247.7639                                                                  
  1681    85.2128    6777(82)          6406.6245         2248.0513                                                                  
  1682    85.2628    5056(71)          4845.9883         2248.3386                                                                  
  1683    85.3128    3925(62)          3815.8091         2248.6260                                                                  
  1684    85.3628    3243(56)          3185.5571         2248.9136                                                                  
  1685    85.4128    2853(53)          2824.8669         2249.2007                                                                  
  1686    85.4628    2625(51)          2628.4805         2249.4883                                                                  
  1687    85.5128    2484(49)          2523.9590         2249.7756                                                                  
  1688    85.5628    2419(49)          2467.1558         2250.0630                                                                  
  1689    85.6128    2316(48)          2433.8372         2250.3503                                                                  
  1690    85.6628    2447(49)          2411.9238         2250.6377                                                                  
  1691    85.7128    2432(49)          2395.7747         2250.9250                                                                  
  1692    85.7628    2359(48)          2382.8796         2251.2124                                                                  
  1693    85.8128    2306(48)          2372.1072         2251.4998                                                                  
  1694    85.8628    2284(47)          2362.8584         2251.7871                                                                  
  1695    85.9128    2293(47)          2354.8948         2252.0745                                                                  
  1696    85.9628    2322(48)          2347.9590         2252.3618                                                                  
  1697    86.0128    2197(46)          2342.0232         2252.6494                                                                  
  1698    86.0628    2303(47)          2336.6973         2252.9368                                                                  
  1699    86.1128    2327(48)          2332.0068         2253.2241                                                                  
  1700    86.1628    2350(48)          2327.8679         2253.5115                                                                  
  1701    86.2128    2380(48)          2324.2083         2253.7988                                                                  
  1702    86.2628    2376(48)          2320.9692         2254.0862                                                                  
  1703    86.3128    2336(48)          2318.1304         2254.3735                                                                  
  1704    86.3628    2307(48)          2315.5925         2254.6609                                                                  
  1705    86.4128    2319(48)          2313.4197         2254.9482                                                                  
  1706    86.4628    2226(47)          2311.4409         2255.2356                                                                  
  1707    86.5128    2280(47)          2309.7021         2255.5229                                                                  
  1708    86.5628    2254(47)          2308.1819         2255.8103                                                                  
  1709    86.6128    2231(47)          2306.8623         2256.0979                                                                  
  1710    86.6628    2311(48)          2305.7285         2256.3853                                                                  
  1711    86.7128    2194(46)          2304.7681         2256.6726                                                                  
  1712    86.7628    2293(47)          2304.0012         2256.9600                                                                  
  1713    86.8128    2382(48)          2303.3909         2257.2473                                                                  
  1714    86.8628    2285(47)          2302.9006         2257.5347                                                                  
  1715    86.9128    2271(47)          2302.5574         2257.8220                                                                  
  1716    86.9628    2269(47)          2302.3604         2258.1094                                                                  
  1717    87.0128    2262(47)          2302.3120         2258.3967                                                                  
  1718    87.0628    2278(47)          2302.4199         2258.6841                                                                  
  1719    87.1128    2324(48)          2302.7000         2258.9714                                                                  
  1720    87.1628    2260(47)          2303.1826         2259.2588                                                                  
  1721    87.2128    2287(47)          2303.9392         2259.5464                                                                  
  1722    87.2628    2277(47)          2305.0605         2259.8337                                                                  
  1723    87.3128    2293(47)          2306.7705         2260.1211                                                                  
  1724    87.3628    2276(47)          2309.4570         2260.4084                                                                  
  1725    87.4128    2299(47)          2313.7971         2260.6958                                                                  
  1726    87.4628    2317(48)          2320.9175         2260.9832                                                                  
  1727    87.5128    2271(47)          2332.5754         2261.2705                                                                  
  1728    87.5628    2262(47)          2351.3181         2261.5579                                                                  
  1729    87.6128    2357(48)          2380.5520         2261.8452                                                                  
  1730    87.6628    2337(48)          2424.3557         2262.1326                                                                  
  1731    87.7128    2350(48)          2487.0325         2262.4199                                                                  
  1732    87.7628    2491(49)          2572.2346         2262.7073                                                                  
  1733    87.8128    2616(51)          2681.8904         2262.9946                                                                  
  1734    87.8628    2671(51)          2815.2271         2263.2822                                                                  
  1735    87.9128    2885(53)          2968.0957         2263.5696                                                                  
  1736    87.9628    3018(54)          3133.0266         2263.8569                                                                  
  1737    88.0128    3090(55)          3300.5938         2264.1443                                                                  
  1738    88.0628    3325(57)          3461.2769         2264.4316                                                                  
  1739    88.1128    3509(59)          3608.4436         2264.7190                                                                  
  1740    88.1628    3596(59)          3741.0854         2265.0063                                                                  
  1741    88.2128    3710(60)          3865.1924         2265.2937                                                                  
  1742    88.2628    3875(62)          3991.8618         2265.5811                                                                  
  1743    88.3128    3871(62)          4133.7314         2265.8684                                                                  
  1744    88.3628    4127(64)          4301.3965         2266.1558                                                                  
  1745    88.4128    4266(65)          4500.4194         2266.4431                                                                  
  1746    88.4628    4570(67)          4729.7920         2266.7307                                                                  
  1747    88.5128    4661(68)          4981.2910         2267.0181                                                                  
  1748    88.5628    4940(70)          5240.1777         2267.3054                                                                  
  1749    88.6128    5285(72)          5487.8311         2267.5928                                                                  
  1750    88.6628    5415(73)          5704.3193         2267.8801                                                                  
  1751    88.7128    5461(73)          5872.5547         2268.1675                                                                  
  1752    88.7628    5476(74)          5980.8667         2268.4548                                                                  
  1753    88.8128    5445(73)          6024.7969         2268.7422                                                                  
  1754    88.8628    5430(73)          6007.2412         2269.0295                                                                  
  1755    88.9128    5263(72)          5938.0459         2269.3169                                                                  
  1756    88.9628    5214(72)          5833.6172         2269.6042                                                                  
  1757    89.0128    5155(71)          5715.4902         2269.8918                                                                  
  1758    89.0628    5080(71)          5607.8589         2270.1792                                                                  
  1759    89.1128    5146(71)          5534.2422         2270.4666                                                                  
  1760    89.1628    5305(72)          5514.1309         2270.7539                                                                  
  1761    89.2128    5360(73)          5559.6533         2271.0413                                                                  
  1762    89.2628    5388(73)          5672.9580         2271.3286                                                                  
  1763    89.3128    5584(74)          5844.4824         2271.6160                                                                  
  1764    89.3628    5815(76)          6052.8921         2271.9033                                                                  
  1765    89.4128    6063(77)          6266.6533         2272.1907                                                                  
  1766    89.4628    6212(78)          6448.4102         2272.4780                                                                  
  1767    89.5128    6126(78)          6561.1602         2272.7654                                                                  
  1768    89.5628    6023(77)          6575.7549         2273.0527                                                                  
  1769    89.6128    6071(77)          6475.5918         2273.3401                                                                  
  1770    89.6628    5819(76)          6258.0938         2273.6274                                                                  
  1771    89.7128    5377(73)          5934.1108         2273.9150                                                                  
  1772    89.7628    5084(71)          5526.8242         2274.2024                                                                  
  1773    89.8128    4635(68)          5068.6025         2274.4897                                                                  
  1774    89.8628    4230(65)          4594.5991         2274.7771                                                                  
  1775    89.9128    3890(62)          4137.1797         2275.0645                                                                  
  1776    89.9628    3606(60)          3721.2900         2275.3518                                                                  
  1777    90.0128    3226(56)          3363.1270         2275.6392                                                                  
  1778    90.0628    2849(53)          3069.8914         2275.9265                                                                  
  1779    90.1128    2693(51)          2840.9817         2276.2139                                                                  
  1780    90.1628    2613(51)          2670.3665         2276.5012                                                                  
  1781    90.2128    2492(49)          2548.6375         2276.7886                                                                  
  1782    90.2628    2528(50)          2465.3462         2277.0762                                                                  
  1783    90.3128    2427(49)          2410.5095         2277.3635                                                                  
  1784    90.3628    2315(48)          2375.5894         2277.6509                                                                  
  1785    90.4128    2333(48)          2353.9385         2277.9382                                                                  
  1786    90.4628    2319(48)          2340.7190         2278.2256                                                                  
  1787    90.5128    2290(47)          2332.7075         2278.5129                                                                  
  1788    90.5628    2290(47)          2327.7017         2278.8003                                                                  
  1789    90.6128    2258(47)          2324.4788         2279.0876                                                                  
  1790    90.6628    2321(48)          2322.3025         2279.3750                                                                  
  1791    90.7128    2303(47)          2320.7612         2279.6624                                                                  
  1792    90.7628    2361(48)          2319.6318         2279.9497                                                                  
  1793    90.8128    2290(47)          2318.7942         2280.2371                                                                  
  1794    90.8628    2316(48)          2318.1821         2280.5247                                                                  
  1795    90.9128    2257(47)          2317.7581         2280.8118                                                                  
  1796    90.9628    2336(48)          2317.5007         2281.0994                                                                  
  1797    91.0128    2423(49)          2317.3960         2281.3867                                                                  
  1798    91.0628    2375(48)          2317.4353         2281.6741                                                                  
  1799    91.1128    2354(48)          2317.6140         2281.9614                                                                  
  1800    91.1628    2350(48)          2317.9304         2282.2488                                                                  
  1801    91.2128    2332(48)          2318.3850         2282.5361                                                                  
  1802    91.2628    2368(48)          2318.9822         2282.8235                                                                  
  1803    91.3128    2332(48)          2319.7288         2283.1108                                                                  
  1804    91.3628    2325(48)          2320.6379         2283.3982                                                                  
  1805    91.4128    2334(48)          2321.7297         2283.6855                                                                  
  1806    91.4628    2371(48)          2323.0388         2283.9729                                                                  
  1807    91.5128    2344(48)          2324.6328         2284.2605                                                                  
  1808    91.5628    2373(48)          2326.5967         2284.5479                                                                  
  1809    91.6128    2456(49)          2329.1287         2284.8352                                                                  
  1810    91.6628    2395(48)          2332.5706         2285.1226                                                                  
  1811    91.7128    2284(47)          2337.5359         2285.4099                                                                  
  1812    91.7628    2342(48)          2345.0928         2285.6973                                                                  
  1813    91.8128    2329(48)          2357.0291         2285.9846                                                                  
  1814    91.8628    2369(48)          2376.2026         2286.2720                                                                  
  1815    91.9128    2385(48)          2406.8992         2286.5593                                                                  
  1816    91.9628    2424(49)          2455.1555         2286.8467                                                                  
  1817    92.0128    2516(50)          2528.8218         2287.1340                                                                  
  1818    92.0628    2640(51)          2636.9448         2287.4214                                                                  
  1819    92.1128    2718(52)          2789.0400         2287.7090                                                                  
  1820    92.1628    2897(53)          2992.9946         2287.9963                                                                  
  1821    92.2128    3194(56)          3253.0483         2288.2837                                                                  
  1822    92.2628    3580(59)          3567.3455         2288.5710                                                                  
  1823    92.3128    3999(63)          3926.4561         2288.8584                                                                  
  1824    92.3628    4374(66)          4313.3911         2289.1458                                                                  
  1825    92.4128    4770(69)          4704.7529         2289.4331                                                                  
  1826    92.4628    5245(72)          5074.4795         2289.7205                                                                  
  1827    92.5128    5601(74)          5398.4731         2290.0078                                                                  
  1828    92.5628    5873(76)          5660.7188         2290.2952                                                                  
  1829    92.6128    6134(78)          5857.4258         2290.5825                                                                  
  1830    92.6628    6260(79)          5995.9038         2290.8699                                                                  
  1831    92.7128    6263(79)          6089.8330         2291.1572                                                                  
  1832    92.7628    6240(78)          6153.6465         2291.4448                                                                  
  1833    92.8128    6361(79)          6198.6035         2291.7322                                                                  
  1834    92.8628    6096(78)          6230.6660         2292.0195                                                                  
  1835    92.9128    6260(79)          6250.0215         2292.3069                                                                  
  1836    92.9628    6022(77)          6252.4180         2292.5942                                                                  
  1837    93.0128    5995(77)          6231.5879         2292.8816                                                                  
  1838    93.0628    6007(77)          6182.1426         2293.1689                                                                  
  1839    93.1128    5914(76)          6101.7695         2293.4563                                                                  
  1840    93.1628    5902(76)          5992.7822         2293.7437                                                                  
  1841    93.2128    5659(75)          5862.1924         2294.0310                                                                  
  1842    93.2628    5434(73)          5721.9502         2294.3184                                                                  
  1843    93.3128    5379(73)          5587.6787         2294.6057                                                                  
  1844    93.3628    5307(72)          5477.0693         2294.8933                                                                  
  1845    93.4128    5313(72)          5407.3340         2295.1807                                                                  
  1846    93.4628    5324(72)          5391.4951         2295.4680                                                                  
  1847    93.5128    5320(72)          5434.5273         2295.7554                                                                  
  1848    93.5628    5297(72)          5530.3936         2296.0427                                                                  
  1849    93.6128    5482(74)          5661.1279         2296.3301                                                                  
  1850    93.6628    5663(75)          5798.8706         2296.6174                                                                  
  1851    93.7128    5684(75)          5910.1094         2296.9048                                                                  
  1852    93.7628    5779(76)          5963.3135         2297.1921                                                                  
  1853    93.8128    5693(75)          5936.0605         2297.4795                                                                  
  1854    93.8628    5607(74)          5818.1826         2297.7668                                                                  
  1855    93.9128    5383(73)          5611.5771         2298.0542                                                                  
  1856    93.9628    5159(71)          5328.7031         2298.3418                                                                  
  1857    94.0128    4900(70)          4989.9756         2298.6292                                                                  
  1858    94.0628    4566(67)          4619.5410         2298.9165                                                                  
  1859    94.1128    4110(64)          4241.3477         2299.2039                                                                  
  1860    94.1628    3704(60)          3876.9421         2299.4912                                                                  
  1861    94.2128    3453(58)          3543.5176         2299.7786                                                                  
  1862    94.2628    3193(56)          3252.6003         2300.0659                                                                  
  1863    94.3128    2999(54)          3009.9634         2300.3533                                                                  
  1864    94.3628    2891(53)          2816.1309         2300.6406                                                                  
  1865    94.4128    2726(52)          2667.7283         2300.9280                                                                  
  1866    94.4628    2589(50)          2558.6606         2301.2153                                                                  
  1867    94.5128    2669(51)          2481.6433         2301.5029                                                                  
  1868    94.5628    2478(49)          2429.2659         2301.7900                                                                  
  1869    94.6128    2404(49)          2394.8135         2302.0776                                                                  
  1870    94.6628    2385(48)          2372.7686         2302.3650                                                                  
  1871    94.7128    2360(48)          2358.9004         2302.6523                                                                  
  1872    94.7628    2362(48)          2350.1987         2302.9397                                                                  
  1873    94.8128    2333(48)          2344.6431         2303.2271                                                                  
  1874    94.8628    2417(49)          2340.9519         2303.5144                                                                  
  1875    94.9128    2306(48)          2338.3557         2303.8018                                                                  
  1876    94.9628    2259(47)          2336.4102         2304.0891                                                                  
  1877    95.0128    2396(48)          2334.8679         2304.3765                                                                  
  1878    95.0628    2382(48)          2333.5933         2304.6638                                                                  
  1879    95.1128    2392(48)          2332.5110         2304.9512                                                                  
  1880    95.1628    2342(48)          2331.5781         2305.2385                                                                  
  1881    95.2128    2278(47)          2330.7673         2305.5261                                                                  
  1882    95.2628    2382(48)          2330.0603         2305.8135                                                                  
  1883    95.3128    2447(49)          2329.4434         2306.1008                                                                  
  1884    95.3628    2371(48)          2328.9055         2306.3882                                                                  
  1885    95.4128    2317(48)          2328.4385         2306.6755                                                                  
  1886    95.4628    2366(48)          2328.0339         2306.9629                                                                  
  1887    95.5128    2349(48)          2327.6860         2307.2502                                                                  
  1888    95.5628    2307(48)          2327.3887         2307.5376                                                                  
  1889    95.6128    2234(47)          2327.1372         2307.8250                                                                  
  1890    95.6628    2271(47)          2326.9275         2308.1123                                                                  
  1891    95.7128    2318(48)          2326.7554         2308.3997                                                                  
  1892    95.7628    2335(48)          2326.6184         2308.6873                                                                  
  1893    95.8128    2392(48)          2326.5127         2308.9746                                                                  
  1894    95.8628    2424(49)          2326.4358         2309.2620                                                                  
  1895    95.9128    2372(48)          2326.3860         2309.5493                                                                  
  1896    95.9628    2255(47)          2326.3711         2309.8367                                                                  
  1897    96.0128    2329(48)          2326.3689         2310.1240                                                                  
  1898    96.0628    2363(48)          2326.3816         2310.4114                                                                  
  1899    96.1128    2379(48)          2326.4204         2310.6987                                                                  
  1900    96.1628    2307(48)          2326.4775         2310.9861                                                                  
  1901    96.2128    2399(48)          2326.5520         2311.2734                                                                  
  1902    96.2628    2315(48)          2326.6426         2311.5608                                                                  
  1903    96.3128    2330(48)          2326.7485         2311.8481                                                                  
  1904    96.3628    2327(48)          2326.8691         2312.1357                                                                  
  1905    96.4128    2376(48)          2327.0027         2312.4229                                                                  
  1906    96.4628    2353(48)          2327.1436         2312.7104                                                                  
  1907    96.5128    2356(48)          2327.3657         2312.9978                                                                  
  1908    96.5628    2293(47)          2327.7676         2313.5161                                                                  
  1909    96.6128    2359(48)          2328.2246         2314.0786                                                                  
  1910    96.6628    2353(48)          2328.6921         2314.6411                                                                  
  1911    96.7128    2367(48)          2329.1702         2315.2036                                                                  
  1912    96.7628    2396(48)          2329.6580         2315.7661                                                                  
  1913    96.8128    2388(48)          2330.1553         2316.3286                                                                  
  1914    96.8628    2290(47)          2330.7090         2316.8911                                                                  
  1915    96.9128    2356(48)          2331.3787         2317.4536                                                                  
  1916    96.9628    2312(48)          2331.9038         2318.0161                                                                  
  1917    97.0128    2350(48)          2332.4375         2318.5786                                                                  
  1918    97.0628    2330(48)          2332.9797         2319.1411                                                                  
  1919    97.1128    2393(48)          2333.5298         2319.7036                                                                  
  1920    97.1628    2365(48)          2334.0881         2320.2661                                                                  
  1921    97.2128    2421(49)          2334.6543         2320.8286                                                                  
  1922    97.2628    2359(48)          2335.2285         2321.3911                                                                  
  1923    97.3128    2355(48)          2335.8105         2321.9536                                                                  
  1924    97.3628    2371(48)          2336.4004         2322.5161                                                                  
  1925    97.4128    2404(49)          2336.9980         2323.0786                                                                  
  1926    97.4628    2384(48)          2337.7773         2323.6411                                                                  
  1927    97.5128    2314(48)          2338.3914         2324.2036                                                                  
  1928    97.5628    2339(48)          2339.0132         2324.7661                                                                  
  1929    97.6128    2317(48)          2339.6431         2325.3286                                                                  
  1930    97.6628    2371(48)          2339.9409         2325.8911                                                                  
  1931    97.7128    2403(49)          2340.5898         2326.4536                                                                  
  1932    97.7628    2445(49)          2341.2471         2327.0161                                                                  
  1933    97.8128    2371(48)          2341.9128         2327.5786                                                                  
  1934    97.8628    2361(48)          2342.5874         2328.1411                                                                  
  1935    97.9128    2423(49)          2343.2708         2328.7034                                                                  
  1936    97.9628    2354(48)          2343.5574         2329.2661                                                                  
  1937    98.0128    2319(48)          2344.2629         2329.8286                                                                  
  1938    98.0628    2470(49)          2344.9780         2330.3909                                                                  
  1939    98.1128    2276(47)          2345.7039         2330.9536                                                                  
  1940    98.1628    2328(48)          2346.4397         2331.5159                                                                  
  1941    98.2128    2337(48)          2347.1868         2332.0784                                                                  
  1942    98.2628    2368(48)          2347.9456         2332.6409                                                                  
  1943    98.3128    2425(49)          2348.7144         2333.2034                                                                  
  1944    98.3628    2467(49)          2349.4980         2333.7659                                                                  
  1945    98.4128    2337(48)          2350.2952         2334.3284                                                                  
  1946    98.4628    2262(47)          2351.1067         2334.8909                                                                  
  1947    98.5128    2302(47)          2351.9336         2335.4534                                                                  
  1948    98.5628    2357(48)          2352.7771         2336.0159                                                                  
  1949    98.6128    2375(48)          2353.5806         2336.5784                                                                  
  1950    98.6628    2373(48)          2354.4634         2337.1409                                                                  
  1951    98.7128    2379(48)          2355.3699         2337.7034                                                                  
  1952    98.7628    2344(48)          2356.3201         2338.2659                                                                  
  1953    98.8128    2368(48)          2357.2866         2338.8284                                                                  
  1954    98.8628    2370(48)          2358.2935         2339.3909                                                                  
  1955    98.9128    2386(48)          2359.3508         2339.9534                                                                  
  1956    98.9628    2351(48)          2360.4731         2340.5159                                                                  
  1957    99.0128    2254(47)          2361.6797         2341.0784                                                                  
  1958    99.0628    2331(48)          2362.9978         2341.6409                                                                  
  1959    99.1128    2426(49)          2364.4646         2342.2034                                                                  
  1960    99.1628    2366(48)          2366.1292         2342.7659                                                                  
  1961    99.2128    2338(48)          2368.0591         2343.3284                                                                  
  1962    99.2628    2350(48)          2370.3418         2343.8909                                                                  
  1963    99.3128    2383(48)          2373.0925         2344.4534                                                                  
  1964    99.3628    2426(49)          2376.4607         2345.0159                                                                  
  1965    99.4128    2441(49)          2380.6355         2345.5781                                                                  
  1966    99.4628    2418(49)          2385.8577         2346.1409                                                                  
  1967    99.5128    2406(49)          2392.4236         2346.7034                                                                  
  1968    99.5628    2467(49)          2400.6953         2347.2656                                                                  
  1969    99.6128    2413(49)          2411.1145         2347.8284                                                                  
  1970    99.6628    2446(49)          2424.1943         2348.3906                                                                  
  1971    99.7128    2453(49)          2440.5537         2348.9531                                                                  
  1972    99.7628    2528(50)          2460.8845         2349.5159                                                                  
  1973    99.8128    2398(48)          2485.9658         2350.0781                                                                  
  1974    99.8628    2477(49)          2516.6707         2350.6406                                                                  
  1975    99.9128    2539(50)          2553.9214         2351.2031                                                                  
  1976    99.9628    2568(50)          2598.7085         2351.7656                                                                  
  1977   100.0128    2571(50)          2652.0264         2352.3281                                                                  
  1978   100.0628    2644(51)          2714.8491         2352.8906                                                                  
  1979   100.1128    2610(51)          2788.1235         2353.4531                                                                  
  1980   100.1628    2647(51)          2872.6497         2354.0156                                                                  
  1981   100.2128    2755(52)          2969.1189         2354.5781                                                                  
  1982   100.2628    2971(54)          3077.9749         2355.1406                                                                  
  1983   100.3128    3016(54)          3199.3901         2355.7031                                                                  
  1984   100.3628    3174(56)          3333.2803         2356.2656                                                                  
  1985   100.4128    3338(57)          3479.1348         2356.8281                                                                  
  1986   100.4628    3474(58)          3636.1475         2357.3906                                                                  
  1987   100.5128    3856(62)          3803.0518         2357.9531                                                                  
  1988   100.5628    4171(64)          3978.1865         2358.5156                                                                  
  1989   100.6128    4435(66)          4159.6035         2359.0781                                                                  
  1990   100.6628    4747(68)          4344.9165         2359.6406                                                                  
  1991   100.7128    5144(71)          4531.5791         2360.2031                                                                  
  1992   100.7628    5187(72)          4716.7808         2360.7656                                                                  
  1993   100.8128    5667(75)          4897.6162         2361.3281                                                                  
  1994   100.8628    5745(75)          5071.1475         2361.8906                                                                  
  1995   100.9128    5917(76)          5234.6313         2362.4531                                                                  
  1996   100.9628    6000(77)          5385.5117         2363.0156                                                                  
  1997   101.0128    5842(76)          5521.5342         2363.5781                                                                  
  1998   101.0628    5944(77)          5640.8765         2364.1406                                                                  
  1999   101.1128    5687(75)          5742.3257         2364.7031                                                                  
  2000   101.1628    5517(74)          5825.0547         2365.2654                                                                  
  2001   101.2128    5522(74)          5888.9111         2365.8281                                                                  
  2002   101.2628    5407(73)          5934.1494         2366.3906                                                                  
  2003   101.3128    5307(72)          5961.4355         2366.9529                                                                  
  2004   101.3628    5212(72)          5971.7354         2367.5156                                                                  
  2005   101.4128    5137(71)          5966.1953         2368.0779                                                                  
  2006   101.4628    5108(71)          5946.0547         2368.6404                                                                  
  2007   101.5128    5152(71)          5912.5894         2369.2029                                                                  
  2008   101.5628    5285(72)          5866.9600         2369.7654                                                                  
  2009   101.6128    5409(73)          5810.2671         2370.3279                                                                  
  2010   101.6628    5416(73)          5743.4971         2370.8904                                                                  
  2011   101.7128    5541(74)          5667.4517         2371.4529                                                                  
  2012   101.7628    5718(75)          5582.8418         2372.0154                                                                  
  2013   101.8128    5608(74)          5490.2881         2372.5779                                                                  
  2014   101.8628    5885(76)          5390.3018         2373.1404                                                                  
  2015   101.9128    5824(76)          5283.4443         2373.7029                                                                  
  2016   101.9628    5780(76)          5170.2300         2374.2654                                                                  
  2017   102.0128    5634(75)          5051.2842         2374.8279                                                                  
  2018   102.0628    5426(73)          4927.3164         2375.3904                                                                  
  2019   102.1128    5470(73)          4799.0591         2375.9529                                                                  
  2020   102.1628    5170(71)          4667.4341         2376.5154                                                                  
  2021   102.2128    5191(72)          4533.3691         2377.0779                                                                  
  2022   102.2628    4899(69)          4397.9512         2377.6404                                                                  
  2023   102.3128    4707(68)          4262.3379         2378.2029                                                                  
  2024   102.3628    4446(66)          4127.7139         2378.7654                                                                  
  2025   102.4128    4303(65)          3995.4473         2379.3279                                                                  
  2026   102.4628    4269(65)          3866.9551         2379.8904                                                                  
  2027   102.5128    4009(63)          3744.1003         2380.4529                                                                  
  2028   102.5628    3796(61)          3629.1472         2381.0154                                                                  
  2029   102.6128    3674(60)          3525.1936         2381.5779                                                                  
  2030   102.6628    3491(59)          3436.7402         2382.1401                                                                  
  2031   102.7128    3380(58)          3370.2019         2382.7029                                                                  
  2032   102.7628    3394(58)          3334.5344         2383.2654                                                                  
  2033   102.8128    3342(57)          3341.6802         2383.8276                                                                  
  2034   102.8628    3341(57)          3406.5850         2384.3904                                                                  
  2035   102.9128    3474(58)          3546.2256         2384.9526                                                                  
  2036   102.9628    3661(60)          3777.7139         2385.5151                                                                  
  2037   103.0128    3926(62)          4114.9258         2386.0779                                                                  
  2038   103.0628    4315(65)          4564.2534         2386.6401                                                                  
  2039   103.1128    4862(69)          5120.3662         2387.2026                                                                  
  2040   103.1628    5589(74)          5761.9971         2387.7651                                                                  
  2041   103.2128    6502(80)          6450.9346         2388.3276                                                                  
  2042   103.2628    7354(85)          7132.6665         2388.8901                                                                  
  2043   103.3128    8267(90)          7741.3428         2389.4526                                                                  
  2044   103.3628    8654(93)          8208.2051         2390.0151                                                                  
  2045   103.4128    8855(94)          8472.3652         2390.5776                                                                  
  2046   103.4628    8666(93)          8495.1201         2391.1401                                                                  
  2047   103.5128    8231(90)          8270.7773         2391.7026                                                                  
  2048   103.5628    7838(88)          7828.6235         2392.2651                                                                  
  2049   103.6128    7067(84)          7223.5190         2392.8276                                                                  
  2050   103.6628    6436(80)          6522.7734         2393.3901                                                                  
  2051   103.7128    5865(76)          5793.0859         2393.9526                                                                  
  2052   103.7628    4887(69)          5092.1992         2394.5151                                                                  
  2053   103.8128    4360(66)          4462.9033         2395.0776                                                                  
  2054   103.8628    3728(61)          3930.5193         2395.6401                                                                  
  2055   103.9128    3389(58)          3504.4504         2396.2026                                                                  
  2056   103.9628    3101(55)          3180.7822         2396.7651                                                                  
  2057   104.0128    2877(53)          2947.2065         2397.3276                                                                  
  2058   104.0628    2711(52)          2787.1948         2397.8901                                                                  
  2059   104.1128    2662(51)          2683.5874         2398.4526                                                                  
  2060   104.1628    2604(51)          2621.1304         2399.0151                                                                  
  2061   104.2128    2644(51)          2587.5222         2399.5776                                                                  
  2062   104.2628    2580(50)          2573.7104         2400.1401                                                                  
  2063   104.3128    2570(50)          2573.6523         2400.7026                                                                  
  2064   104.3628    2625(51)          2583.5100         2401.2651                                                                  
  2065   104.4128    2595(50)          2601.1421         2401.8274                                                                  
  2066   104.4628    2574(50)          2625.5188         2402.3901                                                                  
  2067   104.5128    2573(50)          2656.2739         2402.9526                                                                  
  2068   104.5628    2660(51)          2693.4077         2403.5149                                                                  
  2069   104.6128    2800(52)          2737.1069         2404.0776                                                                  
  2070   104.6628    2792(52)          2787.5706         2404.6399                                                                  
  2071   104.7128    2861(53)          2844.9839         2405.2024                                                                  
  2072   104.7628    2825(53)          2909.4104         2405.7649                                                                  
  2073   104.8128    2940(54)          2980.7754         2406.3274                                                                  
  2074   104.8628    2884(53)          3058.8826         2406.8899                                                                  
  2075   104.9128    3209(56)          3143.3296         2407.4524                                                                  
  2076   104.9628    3312(57)          3233.6094         2408.0149                                                                  
  2077   105.0128    3361(57)          3329.0544         2408.5774                                                                  
  2078   105.0628    3671(60)          3428.9282         2409.1399                                                                  
  2079   105.1128    3732(61)          3532.5593         2409.7024                                                                  
  2080   105.1628    3971(63)          3639.3623         2410.2649                                                                  
  2081   105.2128    4196(64)          3749.1245         2410.8274                                                                  
  2082   105.2628    4356(66)          3862.0767         2411.3899                                                                  
  2083   105.3128    4437(66)          3979.1123         2411.9524                                                                  
  2084   105.3628    4638(68)          4101.9658         2412.5149                                                                  
  2085   105.4128    4652(68)          4233.0718         2413.0774                                                                  
  2086   105.4628    4669(68)          4375.5166         2413.6399                                                                  
  2087   105.5128    4898(69)          4532.4600         2414.2024                                                                  
  2088   105.5628    4924(70)          4706.6694         2414.7649                                                                  
  2089   105.6128    5053(71)          4899.1382         2415.3274                                                                  
  2090   105.6628    5214(72)          5109.0234         2415.8899                                                                  
  2091   105.7128    5294(72)          5332.6040         2416.4524                                                                  
  2092   105.7628    5498(74)          5563.1860         2417.0149                                                                  
  2093   105.8128    5628(75)          5791.4702         2417.5774                                                                  
  2094   105.8628    5818(76)          6006.6279         2418.1399                                                                  
  2095   105.9128    5844(76)          6197.9043         2418.7021                                                                  
  2096   105.9628    6051(77)          6356.9902         2419.2649                                                                  
  2097   106.0128    6226(78)          6480.3027         2419.8274                                                                  
  2098   106.0628    6178(78)          6570.5654         2420.3896                                                                  
  2099   106.1128    6372(79)          6636.3350         2420.9524                                                                  
  2100   106.1628    6601(81)          6689.7129         2421.5146                                                                  
  2101   106.2128    6706(81)          6744.0820         2422.0771                                                                  
  2102   106.2628    6774(82)          6811.9336         2422.6399                                                                  
  2103   106.3128    6980(83)          6903.2207         2423.2021                                                                  
  2104   106.3628    7101(84)          7024.1831         2423.7646                                                                  
  2105   106.4128    7280(85)          7175.9341         2424.3271                                                                  
  2106   106.4628    7437(86)          7354.1060         2424.8896                                                                  
  2107   106.5128    7521(86)          7548.6792         2425.4521                                                                  
  2108   106.5628    7804(88)          7744.8945         2426.0146                                                                  
  2109   106.6128    7823(88)          7924.8369         2426.5771                                                                  
  2110   106.6628    7876(88)          8068.9492         2427.1396                                                                  
  2111   106.7128    7836(88)          8158.0283         2427.7021                                                                  
  2112   106.7628    7788(88)          8175.3262         2428.2646                                                                  
  2113   106.8128    7546(86)          8110.0059         2428.8271                                                                  
  2114   106.8628    7558(86)          7960.9204         2429.3896                                                                  
  2115   106.9128    7547(86)          7738.3486         2429.9521                                                                  
  2116   106.9628    7209(84)          7460.8696         2430.5146                                                                  
  2117   107.0128    7006(83)          7149.5469         2431.0771                                                                  
  2118   107.0628    6809(82)          6822.6191         2431.6396                                                                  
  2119   107.1128    6404(80)          6492.6035         2432.2021                                                                  
  2120   107.1628    6307(79)          6166.8750         2432.7646                                                                  
  2121   107.2128    5662(75)          5849.9023         2433.3271                                                                  
  2122   107.2628    5306(72)          5547.5840         2433.8896                                                                  
  2123   107.3128    5083(71)          5269.9727         2434.4521                                                                  
  2124   107.3628    4717(68)          5031.1006         2435.0146                                                                  
  2125   107.4128    4596(67)          4846.8174         2435.5771                                                                  
  2126   107.4628    4487(66)          4731.2417         2436.1396                                                                  
  2127   107.5128    4538(67)          4693.8193         2436.7021                                                                  
  2128   107.5628    4524(67)          4736.4648         2437.2646                                                                  
  2129   107.6128    4886(69)          4851.7881         2437.8271                                                                  
  2130   107.6628    5287(72)          5022.5400         2438.3894                                                                  
  2131   107.7128    5537(74)          5222.8643         2438.9521                                                                  
  2132   107.7628    5835(76)          5420.7949         2439.5146                                                                  
  2133   107.8128    6069(77)          5582.3037         2440.0769                                                                  
  2134   107.8628    6148(78)          5676.3691         2440.6396                                                                  
  2135   107.9128    5914(76)          5680.2822         2441.2019                                                                  
  2136   107.9628    5778(76)          5584.2749         2441.7644                                                                  
  2137   108.0128    5689(75)          5393.0835         2442.3271                                                                  
  2138   108.0628    5246(72)          5123.8203         2442.8894                                                                  
  2139   108.1128    5046(71)          4801.0952         2443.4519                                                                  
  2140   108.1628    4730(68)          4452.3047         2444.0144                                                                  
  2141   108.2128    4330(65)          4103.1523         2444.5769                                                                  
  2142   108.2628    3914(62)          3775.1216         2445.1394                                                                  
  2143   108.3128    3422(58)          3483.5928         2445.7019                                                                  
  2144   108.3628    3112(55)          3237.2803         2446.2644                                                                  
  2145   108.4128    3050(55)          3039.0454         2446.8269                                                                  
  2146   108.4628    2839(53)          2886.7532         2447.3894                                                                  
  2147   108.5128    2885(53)          2775.2354         2447.9519                                                                  
  2148   108.5628    2661(51)          2697.7339         2448.5144                                                                  
  2149   108.6128    2684(51)          2647.2126         2449.0769                                                                  
  2150   108.6628    2514(50)          2617.3408         2449.6394                                                                  
  2151   108.7128    2641(51)          2602.9209         2450.2019                                                                  
  2152   108.7628    2628(51)          2600.0830         2450.7644                                                                  
  2153   108.8128    2572(50)          2606.1865         2451.3269                                                                  
  2154   108.8628    2635(51)          2619.6338         2451.8894                                                                  
  2155   108.9128    2658(51)          2639.6230         2452.4519                                                                  
  2156   108.9628    2632(51)          2665.9390         2453.0144                                                                  
  2157   109.0128    2653(51)          2698.7883         2453.5769                                                                  
  2158   109.0628    2642(51)          2738.6350         2454.1394                                                                  
  2159   109.1128    2780(52)          2786.1748         2454.7019                                                                  
  2160   109.1628    2819(53)          2842.2375         2455.2642                                                                  
  2161   109.2128    2973(54)          2907.8179         2455.8269                                                                  
  2162   109.2628    2920(54)          2984.1487         2456.3894                                                                  
  2163   109.3128    2970(54)          3072.0359         2456.9517                                                                  
  2164   109.3628    3099(55)          3172.7603         2457.5144                                                                  
  2165   109.4128    3281(57)          3287.1934         2458.0767                                                                  
  2166   109.4628    3409(58)          3415.8640         2458.6392                                                                  
  2167   109.5128    3678(60)          3558.5688         2459.2019                                                                  
  2168   109.5628    3810(61)          3714.1299         2459.7642                                                                  
  2169   109.6128    3984(63)          3880.2212         2460.3267                                                                  
  2170   109.6628    4118(64)          4053.0439         2460.8892                                                                  
  2171   109.7128    4192(64)          4227.5322         2461.4517                                                                  
  2172   109.7628    4348(65)          4397.3774         2462.0142                                                                  
  2173   109.8128    4701(68)          4555.5215         2462.5767                                                                  
  2174   109.8628    4862(69)          4694.8545         2463.1392                                                                  
  2175   109.9128    4858(69)          4808.8799         2463.7017                                                                  
  2176   109.9628    4806(69)          4892.8721         2464.2642                                                                  
  2177   110.0128    4735(68)          4944.6514         2464.8267                                                                  
  2178   110.0628    4813(69)          4965.0781         2465.3892                                                                  
  2179   110.1128    4766(69)          4957.7349         2465.9517                                                                  
  2180   110.1628    4724(68)          4928.1719         2466.5142                                                                  
  2181   110.2128    4666(68)          4882.8955         2467.0767                                                                  
  2182   110.2628    4445(66)          4828.5908         2467.6392                                                                  
  2183   110.3128    4541(67)          4771.5381         2468.2017                                                                  
  2184   110.3628    4363(66)          4716.9966         2468.7642                                                                  
  2185   110.4128    4276(65)          4668.9873         2469.3267                                                                  
  2186   110.4628    4309(65)          4630.0166         2469.8892                                                                  
  2187   110.5128    4349(65)          4601.1021         2470.4517                                                                  
  2188   110.5628    4141(64)          4581.8374         2471.0142                                                                  
  2189   110.6128    4246(65)          4570.5547         2471.5767                                                                  
  2190   110.6628    4280(65)          4564.7324         2472.1392                                                                  
  2191   110.7128    4319(65)          4561.1689         2472.7017                                                                  
  2192   110.7628    4306(65)          4556.4878         2473.2642                                                                  
  2193   110.8128    4251(65)          4547.5811         2473.8267                                                                  
  2194   110.8628    4360(66)          4532.1196         2474.3892                                                                  
  2195   110.9128    4338(65)          4508.9976         2474.9514                                                                  
  2196   110.9628    4469(66)          4478.3975         2475.5142                                                                  
  2197   111.0128    4476(66)          4441.4834         2476.0767                                                                  
  2198   111.0628    4583(67)          4399.8589         2476.6389                                                                  
  2199   111.1128    4469(66)          4355.0679         2477.2017                                                                  
  2200   111.1628    4532(67)          4308.3018         2477.7639                                                                  
  2201   111.2128    4410(66)          4260.1763         2478.3264                                                                  
  2202   111.2628    4285(65)          4210.7856         2478.8889                                                                  
  2203   111.3128    4338(65)          4159.7544         2479.4514                                                                  
  2204   111.3628    4215(64)          4106.4551         2480.0139                                                                  
  2205   111.4128    4206(64)          4050.3013         2480.5764                                                                  
  2206   111.4628    4113(64)          3990.8765         2481.1389                                                                  
  2207   111.5128    3924(62)          3928.1274         2481.7014                                                                  
  2208   111.5628    3929(62)          3862.3989         2482.2639                                                                  
  2209   111.6128    3803(61)          3794.4248         2482.8264                                                                  
  2210   111.6628    3822(61)          3725.4033         2483.3889                                                                  
  2211   111.7128    3722(61)          3656.9106         2483.9514                                                                  
  2212   111.7628    3654(60)          3590.9600         2484.5139                                                                  
  2213   111.8128    3584(59)          3529.9197         2485.0764                                                                  
  2214   111.8628    3556(59)          3476.3894         2485.6389                                                                  
  2215   111.9128    3430(58)          3433.0671         2486.2014                                                                  
  2216   111.9628    3482(59)          3402.4028         2486.7639                                                                  
  2217   112.0128    3383(58)          3386.2773         2487.3264                                                                  
  2218   112.0628    3488(59)          3385.5642         2487.8889                                                                  
  2219   112.1128    3573(59)          3399.7622         2488.4514                                                                  
  2220   112.1628    3595(59)          3426.7222         2489.0139                                                                  
  2221   112.2128    3858(62)          3462.5806         2489.5764                                                                  
  2222   112.2628    3745(61)          3501.8865         2490.1389                                                                  
  2223   112.3128    3915(62)          3538.0273         2490.7014                                                                  
  2224   112.3628    4044(63)          3563.9429         2491.2639                                                                  
  2225   112.4128    4038(63)          3573.0640         2491.8262                                                                  
  2226   112.4628    3922(62)          3560.4517         2492.3889                                                                  
  2227   112.5128    3931(62)          3523.8325         2492.9514                                                                  
  2228   112.5628    3829(61)          3463.9316         2493.5137                                                                  
  2229   112.6128    3740(61)          3384.2532         2494.0764                                                                  
  2230   112.6628    3821(61)          3290.3328         2494.6387                                                                  
  2231   112.7128    3607(60)          3188.6084         2495.2012                                                                  
  2232   112.7628    3476(58)          3085.5308         2495.7639                                                                  
  2233   112.8128    3302(57)          2986.7603         2496.3262                                                                  
  2234   112.8628    3100(55)          2896.6299         2496.8887                                                                  
  2235   112.9128    3074(55)          2818.0261         2497.4512                                                                  
  2236   112.9628    2931(54)          2752.2908         2498.0137                                                                  
  2237   113.0128    2896(53)          2699.5078         2498.5762                                                                  
  2238   113.0628    2850(53)          2658.7732         2499.1387                                                                  
  2239   113.1128    2647(51)          2628.5439         2499.7012                                                                  
  2240   113.1628    2636(51)          2607.0127         2500.2637                                                                  
  2241   113.2128    2634(51)          2592.3396         2500.8262                                                                  
  2242   113.2628    2631(51)          2582.8640         2501.3887                                                                  
  2243   113.3128    2656(51)          2577.1948         2501.9512                                                                  
  2244   113.3628    2620(51)          2574.2449         2502.5137                                                                  
  2245   113.4128    2647(51)          2573.2314         2503.0762                                                                  
  2246   113.4628    2652(51)          2573.6414         2503.6387                                                                  
  2247   113.5128    2624(51)          2575.2019         2504.2012                                                                  
  2248   113.5628    2641(51)          2577.8628         2504.7637                                                                  
  2249   113.6128    2683(51)          2581.8020         2505.3262                                                                  
  2250   113.6628    2603(51)          2587.4563         2505.8887                                                                  
  2251   113.7128    2633(51)          2595.5925         2506.4512                                                                  
  2252   113.7628    2604(51)          2607.3965         2507.0137                                                                  
  2253   113.8128    2708(52)          2624.5896         2507.5762                                                                  
  2254   113.8628    2620(51)          2649.5620         2508.1387                                                                  
  2255   113.9128    2756(52)          2685.4509         2508.7012                                                                  
  2256   113.9628    2804(52)          2736.2170         2509.2637                                                                  
  2257   114.0128    2811(53)          2806.5476         2509.8262                                                                  
  2258   114.0628    2831(53)          2901.6475         2510.3887                                                                  
  2259   114.1128    2871(53)          3026.8904         2510.9512                                                                  
  2260   114.1628    3110(55)          3187.0969         2511.5134                                                                  
  2261   114.2128    3287(57)          3385.8838         2512.0762                                                                  
  2262   114.2628    3501(59)          3624.6287         2512.6387                                                                  
  2263   114.3128    3842(61)          3901.6135         2513.2009                                                                  
  2264   114.3628    4195(64)          4211.3750         2513.7637                                                                  
  2265   114.4128    4542(67)          4544.0469         2514.3259                                                                  
  2266   114.4628    5002(70)          4885.7583         2514.8884                                                                  
  2267   114.5128    5452(73)          5218.8838         2515.4509                                                                  
  2268   114.5628    5678(75)          5523.3564         2516.0134                                                                  
  2269   114.6128    5890(76)          5778.5205         2516.5759                                                                  
  2270   114.6628    6006(77)          5965.1343         2517.1384                                                                  
  2271   114.7128    5923(76)          6068.4653         2517.7009                                                                  
  2272   114.7628    5825(76)          6080.9658         2518.2634                                                                  
  2273   114.8128    5607(74)          6004.4165         2518.8259                                                                  
  2274   114.8628    5552(74)          5850.0410         2519.3884                                                                  
  2275   114.9128    5280(72)          5637.0010         2519.9509                                                                  
  2276   114.9628    5276(72)          5389.6470         2520.5134                                                                  
  2277   115.0128    4906(70)          5135.0771         2521.0759                                                                  
  2278   115.0628    4735(68)          4900.7031         2521.6384                                                                  
  2279   115.1128    4561(67)          4712.0796         2522.2009                                                                  
  2280   115.1628    4500(67)          4591.3193         2522.7634                                                                  
  2281   115.2128    4471(66)          4555.3193         2523.3259                                                                  
  2282   115.2628    4748(68)          4614.6406         2523.8884                                                                  
  2283   115.3128    4824(69)          4772.5439         2524.4509                                                                  
  2284   115.3628    5148(71)          5024.7725         2525.0134                                                                  
  2285   115.4128    5558(74)          5359.5586         2525.5759                                                                  
  2286   115.4628    5993(77)          5758.8047         2526.1384                                                                  
  2287   115.5128    6530(80)          6199.1230         2526.7009                                                                  
  2288   115.5628    6842(82)          6654.0615         2527.2634                                                                  
  2289   115.6128    7124(84)          7097.0693         2527.8259                                                                  
  2290   115.6628    7601(87)          7504.3799         2528.3882                                                                  
  2291   115.7128    7979(89)          7858.6914         2528.9509                                                                  
  2292   115.7628    8173(90)          8150.2412         2529.5134                                                                  
  2293   115.8128    8359(91)          8376.3037         2530.0757                                                                  
  2294   115.8628    8616(92)          8539.2861         2530.6384                                                                  
  2295   115.9128    8942(94)          8644.5879         2531.2007                                                                  
  2296   115.9628    8944(94)          8699.3477         2531.7632                                                                  
  2297   116.0128    8984(94)          8711.0732         2532.3259                                                                  
  2298   116.0628    8992(94)          8686.5166         2532.8882                                                                  
  2299   116.1128    8893(94)          8630.7852         2533.4507                                                                  
  2300   116.1628    8949(94)          8547.0312         2534.0132                                                                  
  2301   116.2128    8648(92)          8436.6758         2534.5757                                                                  
  2302   116.2628    8515(92)          8300.0869         2535.1382                                                                  
  2303   116.3128    8159(90)          8137.2817         2535.7007                                                                  
  2304   116.3628    8006(89)          7948.3833         2536.2632                                                                  
  2305   116.4128    7791(88)          7734.1265         2536.8257                                                                  
  2306   116.4628    7604(87)          7495.7852         2537.3882                                                                  
  2307   116.5128    7408(86)          7235.3428         2537.9507                                                                  
  2308   116.5628    7180(84)          6955.4170         2538.5132                                                                  
  2309   116.6128    6728(82)          6659.1118         2539.0757                                                                  
  2310   116.6628    6437(80)          6350.3262         2539.6382                                                                  
  2311   116.7128    6064(77)          6033.3843         2540.2007                                                                  
  2312   116.7628    5857(76)          5713.2246         2540.7632                                                                  
  2313   116.8128    5603(74)          5395.0371         2541.3257                                                                  
  2314   116.8628    5262(72)          5083.8247         2541.8882                                                                  
  2315   116.9128    4889(69)          4784.4429         2542.4507                                                                  
  2316   116.9628    4500(67)          4500.9873         2543.0132                                                                  
  2317   117.0128    4400(66)          4236.9395         2543.5757                                                                  
  2318   117.0628    4188(64)          3994.9146         2544.1382                                                                  
  2319   117.1128    3888(62)          3776.5222         2544.7007                                                                  
  2320   117.1628    3592(59)          3582.6367         2545.2632                                                                  
  2321   117.2128    3677(60)          3413.1919         2545.8257                                                                  
  2322   117.2628    3416(58)          3267.5024         2546.3882                                                                  
  2323   117.3128    3281(57)          3144.2881         2546.9507                                                                  
  2324   117.3628    3204(56)          3041.7839         2547.5132                                                                  
  2325   117.4128    3114(55)          2958.0120         2548.0754                                                                  
  2326   117.4628    3011(54)          2890.8018         2548.6382                                                                  
  2327   117.5128    2906(53)          2838.0168         2549.2007                                                                  
  2328   117.5628    2804(52)          2797.6174         2549.7629                                                                  
  2329   117.6128    2838(53)          2767.7419         2550.3257                                                                  
  2330   117.6628    2817(53)          2746.8076         2550.8879                                                                  
  2331   117.7128    2754(52)          2733.5217         2551.4504                                                                  
  2332   117.7628    2804(52)          2726.9316         2552.0129                                                                  
  2333   117.8128    2758(52)          2726.4253         2552.5754                                                                  
  2334   117.8628    2807(52)          2731.7375         2553.1379                                                                  
  2335   117.9128    2735(52)          2742.9426         2553.7004                                                                  
  2336   117.9628    2762(52)          2760.4507         2554.2629                                                                  
  2337   118.0128    2798(52)          2784.9817         2554.8254                                                                  
  2338   118.0628    2795(52)          2817.5432         2555.3879                                                                  
  2339   118.1128    2768(52)          2859.4219         2555.9504                                                                  
  2340   118.1628    2753(52)          2912.1006         2556.5129                                                                  
  2341   118.2128    2844(53)          2977.2888         2557.0754                                                                  
  2342   118.2628    2905(53)          3056.7700         2557.6379                                                                  
  2343   118.3128    2998(54)          3152.3708         2558.2004                                                                  
  2344   118.3628    3028(55)          3265.9241         2558.7629                                                                  
  2345   118.4128    3195(56)          3399.0679         2559.3254                                                                  
  2346   118.4628    3361(57)          3553.2915         2559.8879                                                                  
  2347   118.5128    3519(59)          3729.7075         2560.4504                                                                  
  2348   118.5628    3774(61)          3929.0156         2561.0129                                                                  
  2349   118.6128    3975(63)          4151.5415         2561.5754                                                                  
  2350   118.6628    4306(65)          4396.9756         2562.1379                                                                  
  2351   118.7128    4584(67)          4664.6328         2562.7004                                                                  
  2352   118.7628    4852(69)          4953.2075         2563.2629                                                                  
  2353   118.8128    5204(72)          5260.9346         2563.8254                                                                  
  2354   118.8628    5683(75)          5585.8037         2564.3879                                                                  
  2355   118.9128    6016(77)          5925.3457         2564.9502                                                                  
  2356   118.9628    6350(79)          6277.1479         2565.5129                                                                  
  2357   119.0128    6367(79)          6638.6494         2566.0754                                                                  
  2358   119.0628    6681(81)          7007.4692         2566.6377                                                                  
  2359   119.1128    7040(83)          7381.7422         2567.2004                                                                  
  2360   119.1628    7392(85)          7759.8770         2567.7627                                                                  
  2361   119.2128    7785(88)          8141.0522         2568.3252                                                                  
  2362   119.2628    8231(90)          8524.7773         2568.8877                                                                  
  2363   119.3128    8522(92)          8910.8926         2569.4502                                                                  
  2364   119.3628    8948(94)          9299.5117         2570.0127                                                                  
  2365   119.4128    9553(97)          9690.3438         2570.5752                                                                  
  2366   119.4628    10027(100)         10082.9199         2571.1377                                                                
  2367   119.5128    10611(103)         10476.0020         2571.7002                                                                
  2368   119.5628    11322(106)         10867.6221         2572.2627                                                                
  2369   119.6128    11780(108)         11255.2090         2572.8252                                                                
  2370   119.6628    12265(110)         11635.1787         2573.3877                                                                
  2371   119.7128    12993(113)         12003.4863         2573.9502                                                                
  2372   119.7628    13264(115)         12355.3613         2574.5127                                                                
  2373   119.8128    13433(115)         12685.6699         2575.0752                                                                
  2374   119.8628    13755(117)         12989.3486         2575.6377                                                                
  2375   119.9128    13896(117)         13261.3096         2576.2002                                                                
  2376   119.9628    13828(117)         13497.1240         2576.7627                                                                
  2377   120.0128    13728(117)         13692.9707         2577.3252                                                                
  2378   120.0628    13227(115)         13845.9971         2577.8877                                                                
  2379   120.1128    13154(114)         13954.4580         2578.4502                                                                
  2380   120.1628    12960(113)         14017.5830         2579.0127                                                                
  2381   120.2128    12578(112)         14035.6318         2579.5752                                                                
  2382   120.2628    12415(111)         14009.6572         2580.1377                                                                
  2383   120.3128    12493(111)         13941.4160         2580.7002                                                                
  2384   120.3628    12211(110)         13833.1104         2581.2627                                                                
  2385   120.4128    12300(110)         13687.3477         2581.8252                                                                
  2386   120.4628    12066(109)         13506.8584         2582.3877                                                                
  2387   120.5128    11997(109)         13294.5752         2582.9502                                                                
  2388   120.5628    11973(109)         13053.5020         2583.5127                                                                
  2389   120.6128    12021(109)         12786.5898         2584.0752                                                                
  2390   120.6628    12069(109)         12497.0205         2584.6375                                                                
  2391   120.7128    11830(108)         12187.9414         2585.2002                                                                
  2392   120.7628    11662(107)         11862.8584         2585.7627                                                                
  2393   120.8128    11524(107)         11525.5840         2586.3250                                                                
  2394   120.8628    11480(107)         11180.2607         2586.8877                                                                
  2395   120.9128    11187(105)         10831.6992         2587.4500                                                                
  2396   120.9628    11141(105)         10485.6855         2588.0125                                                                
  2397   121.0128    10771(103)         10148.7637         2588.5752                                                                
  2398   121.0628    10495(102)          9828.7744         2589.1375                                                                
  2399   121.1128    10221(101)          9534.7627         2589.7000                                                                
  2400   121.1628    10154(100)          9277.3857         2590.2625                                                                
  2401   121.2128    9859(99)          9068.5518         2590.8250                                                                  
  2402   121.2628    9487(97)          8921.5312         2591.3875                                                                  
  2403   121.3128    9533(97)          8850.3916         2591.9500                                                                  
  2404   121.3628    9480(97)          8869.3809         2592.5125                                                                  
  2405   121.4128    9393(96)          8992.0703         2593.0750                                                                  
  2406   121.4628    9274(96)          9230.2539         2593.6375                                                                  
  2407   121.5128    9466(97)          9592.5264         2594.2000                                                                  
  2408   121.5628    9959(99)         10082.8184         2594.7625                                                                  
  2409   121.6128    10522(102)         10699.3057         2595.3250                                                                
  2410   121.6628    11122(105)         11432.6191         2595.8875                                                                
  2411   121.7128    12065(109)         12265.6797         2596.4500                                                                
  2412   121.7628    13012(114)         13172.5820         2597.0125                                                                
  2413   121.8128    14130(118)         14119.1133         2597.5750                                                                
  2414   121.8628    15289(123)         15064.2217         2598.1375                                                                
  2415   121.9128    15978(126)         15960.9297         2598.7000                                                                
  2416   121.9628    16752(129)         16760.3301         2599.2625                                                                
  2417   122.0128    17461(132)         17414.3730         2599.8250                                                                
  2418   122.0628    18129(134)         17880.5312         2600.3875                                                                
  2419   122.1128    18372(135)         18125.6797         2600.9500                                                                
  2420   122.1628    18118(134)         18128.3418         2601.5122                                                                
  2421   122.2128    17576(132)         17880.4414         2602.0750                                                                
  2422   122.2628    16798(129)         17387.8496         2602.6375                                                                
  2423   122.3128    15710(125)         16670.4727         2603.1997                                                                
  2424   122.3628    14722(121)         15760.4082         2603.7622                                                                
  2425   122.4128    13627(116)         14699.9922         2604.3247                                                                
  2426   122.4628    12672(112)         13536.5859         2604.8872                                                                
  2427   122.5128    11733(108)         12319.3184         2605.4497                                                                
  2428   122.5628    10831(104)         11094.7891         2606.0122                                                                
  2429   122.6128    9898(99)          9903.5801         2606.5747                                                                  
  2430   122.6628    8754(93)          8779.6602         2607.1372                                                                  
  2431   122.7128    7828(88)          7747.9678         2607.6997                                                                  
  2432   122.7628    6941(83)          6825.4062         2608.2622                                                                  
  2433   122.8128    5990(77)          6020.7236         2608.8247                                                                  
  2434   122.8628    5233(72)          5335.1660         2609.3872                                                                  
  2435   122.9128    4681(68)          4764.6421         2609.9497                                                                  
  2436   122.9628    4025(63)          4300.3823         2610.5122                                                                  
  2437   123.0128    3626(60)          3931.1091         2611.0747                                                                  
  2438   123.0628    3348(57)          3644.0986         2611.6372                                                                  
  2439   123.1128    3160(56)          3426.2776         2612.1997                                                                  
  2440   123.1628    3134(55)          3265.3462         2612.7622                                                                  
  2441   123.2128    2972(54)          3150.2498         2613.3247                                                                  
  2442   123.2628    2780(52)          3071.4805         2613.8872                                                                  
  2443   123.3128    2899(53)          3021.2412         2614.4497                                                                  
  2444   123.3628    2858(53)          2993.3582         2615.0122                                                                  
  2445   123.4128    2905(53)          2983.1675         2615.5747                                                                  
  2446   123.4628    2856(53)          2987.2544         2616.1372                                                                  
  2447   123.5128    2871(53)          3003.2065         2616.6997                                                                  
  2448   123.5628    2930(54)          3029.4609         2617.2622                                                                  
  2449   123.6128    3020(54)          3064.9602         2617.8247                                                                  
  2450   123.6628    3122(55)          3109.0398         2618.3872                                                                  
  2451   123.7128    3149(56)          3161.2952         2618.9497                                                                  
  2452   123.7628    3290(57)          3221.4238         2619.5122                                                                  
  2453   123.8128    3275(57)          3289.1541         2620.0747                                                                  
  2454   123.8628    3391(58)          3364.2219         2620.6372                                                                  
  2455   123.9128    3477(58)          3446.2576         2621.1995                                                                  
  2456   123.9628    3606(60)          3534.8564         2621.7622                                                                  
  2457   124.0128    3705(60)          3629.4832         2622.3247                                                                  
  2458   124.0628    3823(61)          3729.5134         2622.8870                                                                  
  2459   124.1128    3929(62)          3834.2920         2623.4497                                                                  
  2460   124.1628    4125(64)          3943.0498         2624.0120                                                                  
  2461   124.2128    4227(65)          4055.0552         2624.5745                                                                  
  2462   124.2628    4267(65)          4169.5366         2625.1372                                                                  
  2463   124.3128    4327(65)          4285.7622         2625.6995                                                                  
  2464   124.3628    4551(67)          4403.1250         2626.2620                                                                  
  2465   124.4128    4661(68)          4521.0337         2626.8245                                                                  
  2466   124.4628    4802(69)          4639.0449         2627.3870                                                                  
  2467   124.5128    4868(69)          4756.7227         2627.9495                                                                  
  2468   124.5628    5062(71)          4873.6504         2628.5120                                                                  
  2469   124.6128    5119(71)          4989.4531         2629.0745                                                                  
  2470   124.6628    5234(72)          5103.6333         2629.6370                                                                  
  2471   124.7128    5332(73)          5215.6899         2630.1995                                                                  
  2472   124.7628    5434(73)          5324.9482         2630.7620                                                                  
  2473   124.8128    5590(74)          5430.7676         2631.3245                                                                  
  2474   124.8628    5770(75)          5532.3613         2631.8870                                                                  
  2475   124.9128    5903(76)          5628.8564         2632.4495                                                                  
  2476   124.9628    6023(77)          5719.4092         2633.0120                                                                  
  2477   125.0128    6033(77)          5803.1211         2633.5745                                                                  
  2478   125.0628    6214(78)          5879.1152         2634.1370                                                                  
  2479   125.1128    6127(78)          5946.6006         2634.6995                                                                  
  2480   125.1628    6214(78)          6004.8252         2635.2620                                                                  
  2481   125.2128    6326(79)          6053.1821         2635.8245                                                                  
  2482   125.2628    6237(78)          6091.1748         2636.3870                                                                  
  2483   125.3128    6145(78)          6118.4634         2636.9495                                                                  
  2484   125.3628    6052(77)          6134.8789         2637.5120                                                                  
  2485   125.4128    6026(77)          6140.3936         2638.0742                                                                  
  2486   125.4628    6052(77)          6135.1255         2638.6367                                                                  
  2487   125.5128    6078(77)          6119.3057         2639.1995                                                                  
  2488   125.5628    5828(76)          6093.2627         2639.7617                                                                  
  2489   125.6128    6117(78)          6057.3848         2640.3242                                                                  
  2490   125.6628    5843(76)          6012.1265         2640.8867                                                                  
  2491   125.7128    5873(76)          5957.9561         2641.4492                                                                  
  2492   125.7628    5904(76)          5895.3965         2642.0117                                                                  
  2493   125.8128    5724(75)          5825.0146         2642.5742                                                                  
  2494   125.8628    5530(74)          5747.4004         2643.1367                                                                  
  2495   125.9128    5688(75)          5663.2681         2643.6992                                                                  
  2496   125.9628    5513(74)          5573.3965         2644.2617                                                                  
  2497   126.0128    5576(74)          5478.7549         2644.8242                                                                  
  2498   126.0628    5454(73)          5380.5103         2645.3867                                                                  
  2499   126.1128    5547(74)          5280.0278         2645.9492                                                                  
  2500   126.1628    5393(73)          5179.0229         2646.5117                                                                  
  2501   126.2128    5177(71)          5079.4897         2647.0742                                                                  
  2502   126.2628    5108(71)          4983.8535         2647.6367                                                                  
  2503   126.3128    5144(71)          4894.9482         2648.1992                                                                  
  2504   126.3628    5220(72)          4815.9502         2648.7617                                                                  
  2505   126.4128    4899(69)          4750.5791         2649.3242                                                                  
  2506   126.4628    5104(71)          4702.7139         2649.8867                                                                  
  2507   126.5128    5022(70)          4676.4639         2650.4492                                                                  
  2508   126.5628    4896(69)          4675.8857         2651.0117                                                                  
  2509   126.6128    4988(70)          4704.7236         2651.5742                                                                  
  2510   126.6628    4994(70)          4766.0703         2652.1367                                                                  
  2511   126.7128    5084(71)          4862.0420         2652.6992                                                                  
  2512   126.7628    5100(71)          4993.3633         2653.2617                                                                  
  2513   126.8128    5184(72)          5159.0293         2653.8242                                                                  
  2514   126.8628    5507(74)          5356.0928         2654.3867                                                                  
  2515   126.9128    5760(75)          5579.5396         2654.9492                                                                  
  2516   126.9628    5994(77)          5822.1299         2655.5117                                                                  
  2517   127.0128    6167(78)          6074.6875         2656.0742                                                                  
  2518   127.0628    6369(79)          6326.2959         2656.6367                                                                  
  2519   127.1128    6736(82)          6565.1357         2657.1992                                                                  
  2520   127.1628    6942(83)          6778.9756         2657.7615                                                                  
  2521   127.2128    7167(84)          6956.3467         2658.3242                                                                  
  2522   127.2628    7397(86)          7087.1587         2658.8867                                                                  
  2523   127.3128    7273(85)          7163.5039         2659.4490                                                                  
  2524   127.3628    7322(85)          7180.1680         2660.0117                                                                  
  2525   127.4128    7300(85)          7134.8994         2660.5740                                                                  
  2526   127.4628    7012(83)          7028.5615         2661.1365                                                                  
  2527   127.5128    6915(83)          6865.0098         2661.6990                                                                  
  2528   127.5628    6726(82)          6650.7534         2662.2615                                                                  
  2529   127.6128    6395(79)          6394.2349         2662.8240                                                                  
  2530   127.6628    6072(77)          6105.4595         2663.3865                                                                  
  2531   127.7128    5817(76)          5794.9956         2663.9490                                                                  
  2532   127.7628    5490(74)          5473.5693         2664.5115                                                                  
  2533   127.8128    5330(73)          5151.2939         2665.0740                                                                  
  2534   127.8628    5084(71)          4836.9863         2665.6365                                                                  
  2535   127.9128    4805(69)          4538.1538         2666.1990                                                                  
  2536   127.9628    4433(66)          4260.4297         2666.7615                                                                  
  2537   128.0128    4188(64)          4007.8601         2667.3240                                                                  
  2538   128.0628    3862(62)          3782.7964         2667.8865                                                                  
  2539   128.1128    3561(59)          3586.1665         2668.4490                                                                  
  2540   128.1628    3465(58)          3417.4656         2669.0115                                                                  
  2541   128.2128    3302(57)          3275.3774         2669.5740                                                                  
  2542   128.2628    3199(56)          3157.7932         2670.1365                                                                  
  2543   128.3128    3034(55)          3062.1362         2670.6990                                                                  
  2544   128.3628    2967(54)          2985.6157         2671.2612                                                                  
  2545   128.4128    2940(54)          2925.4167         2671.9053                                                                  
  2546   128.4628    2851(53)          2878.7776         2672.5811                                                                  
  2547   128.5128    2808(52)          2843.1501         2673.2566                                                                  
  2548   128.5628    2746(52)          2816.3057         2673.9324                                                                  
  2549   128.6128    2760(52)          2796.3389         2674.6079                                                                  
  2550   128.6628    2690(51)          2781.6477         2675.2834                                                                  
  2551   128.7128    2809(53)          2770.9539         2675.9592                                                                  
  2552   128.7628    2853(53)          2763.2434         2676.6350                                                                  
  2553   128.8128    2616(51)          2757.7378         2677.3105                                                                  
  2554   128.8628    2660(51)          2753.8572         2677.9861                                                                  
  2555   128.9128    2746(52)          2751.1792         2678.6619                                                                  
  2556   128.9628    2674(51)          2749.4128         2679.3374                                                                  
  2557   129.0128    2786(52)          2748.3713         2680.0132                                                                  
  2558   129.0628    2696(51)          2747.9507         2680.6887                                                                  
  2559   129.1128    2764(52)          2748.1194         2681.3643                                                                  
  2560   129.1628    2794(52)          2748.9114         2682.0400                                                                  
  2561   129.2128    2740(52)          2750.4238         2682.7156                                                                  
  2562   129.2628    2800(52)          2752.8213         2683.3914                                                                  
  2563   129.3128    2781(52)          2756.3318         2684.0669                                                                  
  2564   129.3628    2684(51)          2761.2842         2684.7424                                                                  
  2565   129.4128    2736(52)          2768.0750         2685.4182                                                                  
  2566   129.4628    2724(52)          2777.1782         2686.0938                                                                  
  2567   129.5128    2805(52)          2789.2036         2686.7695                                                                  
  2568   129.5628    2746(52)          2804.7944         2687.4453                                                                  
  2569   129.6128    2750(52)          2824.6626         2688.1206                                                                  
  2570   129.6628    2879(53)          2849.5691         2688.7964                                                                  
  2571   129.7128    2734(52)          2880.2410         2689.4719                                                                  
  2572   129.7628    2803(52)          2917.3264         2690.1477                                                                  
  2573   129.8128    2925(54)          2961.3765         2690.8235                                                                  
  2574   129.8628    2973(54)          3012.6719         2691.4988                                                                  
  2575   129.9128    3058(55)          3071.2732         2692.1746                                                                  
  2576   129.9628    3032(55)          3136.8491         2692.8503                                                                  
  2577   130.0128    3074(55)          3208.6912         2693.5259                                                                  
  2578   130.0628    3166(56)          3285.6812         2694.2017                                                                  
  2579   130.1128    3382(58)          3366.2788         2694.8772                                                                  
  2580   130.1628    3398(58)          3448.6726         2695.5527                                                                  
  2581   130.2128    3435(58)          3530.7227         2696.2285                                                                  
  2582   130.2628    3377(58)          3610.1804         2696.9041                                                                  
  2583   130.3128    3610(60)          3684.8301         2697.5798                                                                  
  2584   130.3628    3583(59)          3752.6597         2698.2554                                                                  
  2585   130.4128    3683(60)          3812.1672         2698.9309                                                                  
  2586   130.4628    3762(61)          3862.4775         2699.6067                                                                  
  2587   130.5128    3647(60)          3903.6443         2700.2822                                                                  
  2588   130.5628    3835(61)          3936.7651         2700.9580                                                                  
  2589   130.6128    3767(61)          3963.9561         2701.6335                                                                  
  2590   130.6628    3823(61)          3988.2063         2702.3091                                                                  
  2591   130.7128    3836(61)          4013.0044         2702.9849                                                                  
  2592   130.7628    3912(62)          4041.9846         2703.6606                                                                  
  2593   130.8128    4114(64)          4078.5239         2704.3362                                                                  
  2594   130.8628    4033(63)          4125.3691         2705.0117                                                                  
  2595   130.9128    4081(63)          4184.4023         2705.6873                                                                  
  2596   130.9628    4169(64)          4256.3335         2706.3630                                                                  
  2597   131.0128    4288(65)          4340.6143         2707.0388                                                                  
  2598   131.0628    4168(64)          4435.3862         2707.7144                                                                  
  2599   131.1128    4354(65)          4537.5078         2708.3899                                                                  
  2600   131.1628    4469(66)          4642.8584         2709.0657                                                                  
  2601   131.2128    4652(68)          4746.4385         2709.7412                                                                  
  2602   131.2628    4715(68)          4842.9219         2710.4170                                                                  
  2603   131.3128    4672(68)          4927.1270         2711.0925                                                                  
  2604   131.3628    4730(68)          4994.5225         2711.7681                                                                  
  2605   131.4128    4742(69)          5041.6992         2712.4438                                                                  
  2606   131.4628    4799(69)          5066.4243         2713.1194                                                                  
  2607   131.5128    4905(70)          5067.7314         2713.7952                                                                  
  2608   131.5628    4830(70)          5045.7773         2714.4707                                                                  
  2609   131.6128    4737(69)          5001.8086         2715.1462                                                                  
  2610   131.6628    4643(69)          4937.9253         2715.8220                                                                  
  2611   131.7128    4660(69)          4857.0664         2716.4976                                                                  
  2612   131.7628    4443(67)          4762.6997         2717.1733                                                                  
  2613   131.8128    4470(68)          4658.5293         2717.8491                                                                  
  2614   131.8628    4407(67)          4548.2090         2718.5244                                                                  
  2615   131.9128    4299(67)          4434.9580         2719.2002                                                                  
  2616   131.9628    4156(66)          4321.5879         2719.8760                                                                  
  2617   132.0128    4131(66)          4210.2939         2720.5515                                                                  
  2618   132.0628    4141(66)          4102.6802         2721.2273                                                                  
  2619   132.1128    4079(65)          3999.8213         2721.9026                                                                  
  2620   132.1628    3917(64)          3902.2524         2722.5784                                                                  
  2621   132.2128    3681(62)          3810.1904         2723.2542                                                                  
  2622   132.2628    3514(61)          3723.5347         2723.9297                                                                  
  2623   132.3128    3684(63)          3641.9912         2724.6055                                                                  
  2624   132.3628    3491(61)          3565.1880         2725.2810                                                                  
  2625   132.4128    3441(61)          3492.6704         2725.9565                                                                  
  2626   132.4628    3356(60)          3424.1133         2726.6323                                                                  
  2627   132.5128    3204(59)          3359.2639         2727.3079                                                                  
  2628   132.5628    3207(59)          3297.9824         2727.9836                                                                  
  2629   132.6128    3186(59)          3240.2439         2728.6592                                                                  
  2630   132.6628    3079(58)          3186.0447         2729.3347                                                                  
  2631   132.7128    3138(59)          3135.4783         2730.0105                                                                  
  2632   132.7628    3172(59)          3088.6338         2730.6860                                                                  
  2633   132.8128    3091(58)          3045.5906         2731.3618                                                                  
  2634   132.8628    3014(58)          3006.4102         2732.0374                                                                  
  2635   132.9128    3006(58)          2971.0759         2732.7129                                                                  
  2636   132.9628    2967(58)          2939.5562         2733.3887                                                                  
  2637   133.0128    2934(57)          2911.7502         2734.0645                                                                  
  2638   133.0628    2851(57)          2887.5039         2734.7400                                                                  
  2639   133.1128    2907(57)          2866.6196         2735.4155                                                                  
  2640   133.1628    2872(57)          2848.8401         2736.0913                                                                  
  2641   133.2128    2832(57)          2833.8977         2736.7668                                                                  
  2642   133.2628    2763(56)          2821.4998         2737.4426                                                                  
  2643   133.3128    2787(57)          2811.3457         2738.1182                                                                  
  2644   133.3628    2846(57)          2803.1416         2738.7937                                                                  
  2645   133.4128    2861(58)          2796.5986         2739.4695                                                                  
  2646   133.4628    2849(58)          2791.4546         2740.1450                                                                  
  2647   133.5128    2876(58)          2787.4700         2740.8208                                                                  
  2648   133.5628    2753(57)          2784.4321         2741.4963                                                                  
  2649   133.6128    2820(58)          2782.1580         2742.1719                                                                  
  2650   133.6628    2850(58)          2780.4895         2742.8477                                                                  
  2651   133.7128    2704(57)          2779.2981         2743.5232                                                                  
  2652   133.7628    2703(57)          2778.4780         2744.1990                                                                  
  2653   133.8128    2750(57)          2777.9443         2744.8745                                                                  
  2654   133.8628    2776(58)          2777.6306         2745.5500                                                                  
  2655   133.9128    2729(57)          2777.4851         2746.2258                                                                  
  2656   133.9628    2788(58)          2777.4678         2746.9014                                                                  
  2657   134.0128    2797(58)          2777.5493         2747.5771                                                                  
  2658   134.0628    2747(58)          2777.7078         2748.2529                                                                  
  2659   134.1128    2631(57)          2777.9263         2748.9282                                                                  
  2660   134.1628    2740(58)          2778.1934         2749.6040                                                                  
  2661   134.2128    2766(58)          2778.5000         2750.2798                                                                  
  2662   134.2628    2762(58)          2778.8398         2750.9553                                                                  
  2663   134.3128    2786(59)          2779.2083         2751.6311                                                                  
  2664   134.3628    2764(59)          2779.6016         2752.3066                                                                  
  2665   134.4128    2805(59)          2780.0173         2752.9822                                                                  
  2666   134.4628    2745(59)          2780.4534         2753.6580                                                                  
  2667   134.5128    2850(60)          2780.8611         2754.3335                                                                  
  2668   134.5628    2745(59)          2781.3335         2755.0093                                                                  
  2669   134.6128    2829(60)          2781.8218         2755.6848                                                                  
  2670   134.6628    2856(60)          2782.3252         2756.3604                                                                  
  2671   134.7128    2768(60)          2782.8435         2757.0361                                                                  
  2672   134.7628    2775(60)          2783.3750         2757.7117                                                                  
  2673   134.8128    2779(60)          2783.9197         2758.3875                                                                  
  2674   134.8628    2774(60)          2784.4763         2759.0630                                                                  
  2675   134.9128    2722(60)          2785.0449         2759.7385                                                                  
  2676   134.9628    2755(60)          2785.6250         2760.4143                                                                  
  2677   135.0128    2749(60)          2786.2158         2761.0898                                                                  
  2678   135.0628    2834(61)          2786.8171         2761.7656                                                                  
  2679   135.1128    2784(61)          2787.4282         2762.4412                                                                  
  2680   135.1628    2792(61)          2788.0488         2763.1167                                                                  
  2681   135.2128    2863(62)          2788.6792         2763.7925                                                                  
  2682   135.2628    2861(62)          2789.3186         2764.4683                                                                  
  2683   135.3128    2882(62)          2789.9666         2765.1438                                                                  
  2684   135.3628    2693(60)          2790.6230         2765.8193                                                                  
  2685   135.4128    2695(60)          2791.2878         2766.4951                                                                  
  2686   135.4628    2823(62)          2791.9607         2767.1707                                                                  
  2687   135.5128    2790(62)          2792.6416         2767.8464                                                                  
  2688   135.5628    2739(61)          2793.3298         2768.5220                                                                  
  2689   135.6128    2695(61)          2794.0259         2769.1975                                                                  
  2690   135.6628    2782(62)          2794.7292         2769.8733                                                                  
  2691   135.7128    2775(62)          2795.4399         2770.5488                                                                  
  2692   135.7628    2813(63)          2796.1580         2771.2246                                                                  
  2693   135.8128    2907(64)          2796.8828         2771.9001                                                                  
  2694   135.8628    2768(62)          2797.6147         2772.5757                                                                  
  2695   135.9128    2776(63)          2798.3535         2773.2515                                                                  
  2696   135.9628    2783(63)          2799.0991         2773.9270                                                                  
  2697   136.0128    2844(64)          2799.8518         2774.6028                                                                  
  2698   136.0628    2812(63)          2800.6113         2775.2786                                                                  
  2699   136.1128    2924(65)          2801.3767         2775.9539                                                                  
  2700   136.1628    2854(64)          2802.1497         2776.6296                                                                  
  2701   136.2128    2745(63)          2802.9287         2777.3052                                                                  
  2702   136.2628    2852(64)          2803.7148         2777.9810                                                                  
  2703   136.3128    2713(63)          2804.5076         2778.6567                                                                  
  2704   136.3628    2692(63)          2805.2314         2779.3320                                                                  
  2705   136.4128    2833(64)          2806.0378         2780.0078                                                                  
  2706   136.4628    2747(64)          2806.8511         2780.6836                                                                  
  2707   136.5128    2811(64)          2807.6709         2781.3591                                                                  
  2708   136.5628    2802(64)          2808.4976         2782.0349                                                                  
  2709   136.6128    2894(66)          2809.3069         2782.7104                                                                  
  2710   136.6628    2914(66)          2810.1472         2783.3860                                                                  
  2711   136.7128    2772(64)          2810.9949         2784.0618                                                                  
  2712   136.7628    2765(65)          2811.8491         2784.7373                                                                  
  2713   136.8128    2872(66)          2812.7109         2785.4131                                                                  
  2714   136.8628    2758(65)          2813.5793         2786.0886                                                                  
  2715   136.9128    2842(66)          2814.4553         2786.7642                                                                  
  2716   136.9628    2706(64)          2815.3391         2787.4399                                                                  
  2717   137.0128    2832(66)          2816.2300         2788.1155                                                                  
  2718   137.0628    2828(66)          2817.1289         2788.7913                                                                  
  2719   137.1128    2985(68)          2818.0352         2789.4668                                                                  
  2720   137.1628    2854(67)          2818.9495         2790.1423                                                                  
  2721   137.2128    2787(66)          2819.8721         2790.8181                                                                  
  2722   137.2628    2766(66)          2820.8027         2791.4939                                                                  
  2723   137.3128    2836(67)          2821.7334         2792.1694                                                                  
  2724   137.3628    2887(68)          2822.6807         2792.8450                                                                  
  2725   137.4128    2866(67)          2823.6372         2793.5205                                                                  
  2726   137.4628    2843(67)          2824.6025         2794.1963                                                                  
  2727   137.5128    2794(67)          2825.5771         2794.8721                                                                  
  2728   137.5628    2851(68)          2826.5610         2795.5476                                                                  
  2729   137.6128    2827(67)          2827.5544         2796.2231                                                                  
  2730   137.6628    2865(68)          2828.5579         2796.8989                                                                  
  2731   137.7128    2749(67)          2829.5710         2797.5745                                                                  
  2732   137.7628    2881(69)          2830.5952         2798.2502                                                                  
  2733   137.8128    2796(68)          2831.6294         2798.9258                                                                  
  2734   137.8628    2944(70)          2832.6746         2799.6013                                                                  
  2735   137.9128    2919(69)          2833.7312         2800.2771                                                                  
  2736   137.9628    3012(71)          2834.7993         2800.9526                                                                  
  2737   138.0128    2983(70)          2835.8796         2801.6284                                                                  
  2738   138.0628    2966(70)          2836.9719         2802.3042                                                                  
  2739   138.1128    2994(71)          2838.0764         2802.9795                                                                  
  2740   138.1628    2941(70)          2839.1946         2803.6553                                                                  
  2741   138.2128    2982(71)          2840.3259         2804.3308                                                                  
  2742   138.2628    2999(71)          2841.4712         2805.0066                                                                  
  2743   138.3128    2985(71)          2842.6309         2805.6824                                                                  
  2744   138.3628    2939(71)          2843.8049         2806.3577                                                                  
  2745   138.4128    2981(72)          2844.9946         2807.0334                                                                  
  2746   138.4628    2960(71)          2846.2004         2807.7092                                                                  
  2747   138.5128    2873(71)          2847.4221         2808.3848                                                                  
  2748   138.5628    2919(71)          2848.6614         2809.0605                                                                  
  2749   138.6128    2906(71)          2849.9133         2809.7358                                                                  
  2750   138.6628    2969(72)          2851.1882         2810.4116                                                                  
  2751   138.7128    3024(73)          2852.4822         2811.0874                                                                  
  2752   138.7628    3039(73)          2853.7959         2811.7629                                                                  
  2753   138.8128    2862(71)          2855.1301         2812.4387                                                                  
  2754   138.8628    2965(73)          2856.4854         2813.1143                                                                  
  2755   138.9128    2978(73)          2857.8633         2813.7898                                                                  
  2756   138.9628    3128(75)          2859.2646         2814.4656                                                                  
  2757   139.0128    2910(72)          2860.6904         2815.1411                                                                  
  2758   139.0628    2936(73)          2862.1421         2815.8169                                                                  
  2759   139.1128    2945(73)          2863.6201         2816.4924                                                                  
  2760   139.1628    3008(74)          2865.1267         2817.1680                                                                  
  2761   139.2128    2836(72)          2866.6636         2817.8438                                                                  
  2762   139.2628    2903(73)          2868.2324         2818.5195                                                                  
  2763   139.3128    2951(74)          2869.8347         2819.1951                                                                  
  2764   139.3628    2978(74)          2871.6191         2820.0168                                                                  
  2765   139.4128    2995(75)          2874.3440         2821.7397                                                                  
  2766   139.4628    2965(74)          2877.1108         2823.4626                                                                  
  2767   139.5128    2933(74)          2879.9231         2825.1855                                                                  
  2768   139.5628    2982(75)          2882.7856         2826.9084                                                                  
  2769   139.6128    2980(75)          2885.7024         2828.6309                                                                  
  2770   139.6628    3167(78)          2888.6812         2830.3535                                                                  
  2771   139.7128    3039(76)          2891.7288         2832.0764                                                                  
  2772   139.7628    3055(76)          2894.8542         2833.7993                                                                  
  2773   139.8128    2979(76)          2898.0215         2835.5222                                                                  
  2774   139.8628    2990(76)          2901.3372         2837.2446                                                                  
  2775   139.9128    2797(74)          2904.7727         2838.9675                                                                  
  2776   139.9628    2856(75)          2908.3469         2840.6904                                                                  
  2777   140.0128    2993(76)          2912.0845         2842.4131                                                                  
  2778   140.0628    2907(76)          2916.0161         2844.1360                                                                  
  2779   140.1128    2872(75)          2920.1775         2845.8584                                                                  
  2780   140.1628    2978(77)          2924.6162         2847.5813                                                                  
  2781   140.2128    2950(77)          2929.3860         2849.3042                                                                  
  2782   140.2628    2890(76)          2934.5537         2851.0271                                                                  
  2783   140.3128    3012(78)          2940.2000         2852.7500                                                                  
  2784   140.3628    2959(77)          2946.4194         2854.4722                                                                  
  2785   140.4128    3054(79)          2953.3323         2856.1951                                                                  
  2786   140.4628    3025(78)          2961.0742         2857.9180                                                                  
  2787   140.5128    2977(78)          2969.8086         2859.6409                                                                  
  2788   140.5628    3005(78)          2979.7271         2861.3638                                                                  
  2789   140.6128    2985(78)          2991.0493         2863.0862                                                                  
  2790   140.6628    2844(77)          3004.0356         2864.8088                                                                  
  2791   140.7128    2901(77)          3018.9934         2866.5317                                                                  
  2792   140.7628    2974(79)          3036.2566         2868.2546                                                                  
  2793   140.8128    2946(78)          3056.2102         2869.9775                                                                  
  2794   140.8628    3086(80)          3079.2793         2871.7000                                                                  
  2795   140.9128    3080(81)          3105.9575         2873.4229                                                                  
  2796   140.9628    2882(78)          3136.7676         2875.1458                                                                  
  2797   141.0128    2927(79)          3172.2852         2876.8684                                                                  
  2798   141.0628    2984(80)          3213.1311         2878.5913                                                                  
  2799   141.1128    3172(82)          3259.9509         2880.3137                                                                  
  2800   141.1628    3258(84)          3313.4678         2882.0366                                                                  
  2801   141.2128    3204(83)          3374.3877         2883.7595                                                                  
  2802   141.2628    3309(85)          3443.4407         2885.4824                                                                  
  2803   141.3128    3338(85)          3521.3716         2887.2053                                                                  
  2804   141.3628    3374(86)          3608.8696         2888.9275                                                                  
  2805   141.4128    3272(85)          3706.6816         2890.6504                                                                  
  2806   141.4628    3493(88)          3815.4241         2892.3733                                                                  
  2807   141.5128    3691(90)          3935.6724         2894.0962                                                                  
  2808   141.5628    3871(93)          4067.9126         2895.8191                                                                  
  2809   141.6128    3980(94)          4212.4756         2897.5415                                                                  
  2810   141.6628    3995(95)          4369.6973         2899.2642                                                                  
  2811   141.7128    4359(99)          4539.6372         2900.9871                                                                  
  2812   141.7628    4558(102)          4722.2271         2902.7100                                                                 
  2813   141.8128    4699(103)          4917.2402         2904.4329                                                                 
  2814   141.8628    4959(106)          5124.1831         2906.1553                                                                 
  2815   141.9128    5334(111)          5342.5688         2907.8782                                                                 
  2816   141.9628    5553(113)          5571.5283         2909.6011                                                                 
  2817   142.0128    5770(116)          5810.0713         2911.3237                                                                 
  2818   142.0628    6225(120)          6057.0273         2913.0466                                                                 
  2819   142.1128    6526(123)          6310.9839         2914.7690                                                                 
  2820   142.1628    6689(125)          6570.6221         2916.4919                                                                 
  2821   142.2128    6994(128)          6834.2676         2918.2148                                                                 
  2822   142.2628    7325(132)          7100.2354         2919.9377                                                                 
  2823   142.3128    7615(134)          7366.7788         2921.6606                                                                 
  2824   142.3628    7767(136)          7632.0557         2923.3828                                                                 
  2825   142.4128    7920(138)          7894.4922         2925.1057                                                                 
  2826   142.4628    8126(140)          8152.3384         2926.8286                                                                 
  2827   142.5128    8314(142)          8404.0547         2928.5515                                                                 
  2828   142.5628    8657(145)          8648.2725         2930.2744                                                                 
  2829   142.6128    8674(145)          8883.7764         2931.9968                                                                 
  2830   142.6628    8786(147)          9109.8281         2933.7197                                                                 
  2831   142.7128    9022(149)          9325.7588         2935.4424                                                                 
  2832   142.7628    8876(148)          9531.2715         2937.1653                                                                 
  2833   142.8128    9302(152)          9726.3516         2938.8882                                                                 
  2834   142.8628    9529(154)          9911.1934         2940.6106                                                                 
  2835   142.9128    9744(156)         10086.3613         2942.3335                                                                 
  2836   142.9628    9633(155)         10252.4150         2944.0564                                                                 
  2837   143.0128    9820(157)         10410.0742         2945.7793                                                                 
  2838   143.0628    10165(160)         10560.1074         2947.5020                                                                
  2839   143.1128    10271(162)         10703.2412         2949.2244                                                                
  2840   143.1628    10785(166)         10840.2822         2950.9473                                                                
  2841   143.2128    10814(166)         10971.8174         2952.6702                                                                
  2842   143.2628    11108(169)         11098.3691         2954.3931                                                                
  2843   143.3128    11400(172)         11220.3174         2956.1160                                                                
  2844   143.3628    11602(174)         11337.8486         2957.8381                                                                
  2845   143.4128    12188(178)         11451.0938         2959.5610                                                                
  2846   143.4628    12338(180)         11559.9062         2961.2839                                                                
  2847   143.5128    12499(181)         11663.9902         2963.0068                                                                
  2848   143.5628    12180(179)         11762.9561         2964.7297                                                                
  2849   143.6128    12403(181)         11856.1895         2966.4521                                                                
  2850   143.6628    12571(183)         11943.0762         2968.1750                                                                
  2851   143.7128    12538(183)         12022.8281         2969.8977                                                                
  2852   143.7628    12656(184)         12094.6367         2971.6206                                                                
  2853   143.8128    12656(185)         12157.6602         2973.3435                                                                
  2854   143.8628    12567(185)         12211.1348         2975.0659                                                                
  2855   143.9128    12482(184)         12254.3291         2976.7888                                                                
  2856   143.9628    12408(184)         12286.5703         2978.5117                                                                
  2857   144.0128    12621(186)         12307.3213         2980.2346                                                                
  2858   144.0628    12453(185)         12316.1709         2981.9573                                                                
  2859   144.1128    12263(184)         12312.9004         2983.6797                                                                
  2860   144.1628    12091(183)         12297.4219         2985.4026                                                                
  2861   144.2128    12054(183)         12269.8438         2987.1255                                                                
  2862   144.2628    11876(183)         12230.4619         2988.8484                                                                
  2863   144.3128    11926(183)         12179.7871         2990.5713                                                                
  2864   144.3628    12154(185)         12118.5586         2992.2935                                                                
  2865   144.4128    12240(187)         12047.6885         2994.0164                                                                
  2866   144.4628    11821(184)         11968.3828         2995.7393                                                                
  2867   144.5128    11869(184)         11882.0762         2997.4622                                                                
  2868   144.5628    11829(185)         11790.4707         2999.1851                                                                
  2869   144.6128    11865(185)         11695.5332         3000.9075                                                                
  2870   144.6628    11710(184)         11599.4824         3002.6304                                                                
  2871   144.7128    12006(187)         11504.8105         3004.3530                                                                
  2872   144.7628    11938(187)         11414.2432         3006.0759                                                                
  2873   144.8128    11464(184)         11330.7051         3007.7988                                                                
  2874   144.8628    11334(183)         11257.2998         3009.5212                                                                
  2875   144.9128    11601(186)         11197.1621         3011.2441                                                                
  2876   144.9628    11135(182)         11153.5010         3012.9670                                                                
  2877   145.0128    11211(183)         11129.4180         3014.6899                                                                
  2878   145.0628    11323(185)         11127.8105         3016.4126                                                                
  2879   145.1128    10987(182)         11151.2432         3018.1350                                                                
  2880   145.1628    11087(183)         11201.8594         3019.8579                                                                
  2881   145.2128    11470(187)         11281.2070         3021.5808                                                                
  2882   145.2628    11525(188)         11390.1465         3023.3037                                                                
  2883   145.3128    11431(187)         11528.7451         3025.0266                                                                
  2884   145.3628    11996(192)         11696.1426         3026.7490                                                                
  2885   145.4128    11939(192)         11890.7061         3028.4717                                                                
  2886   145.4628    12708(199)         12109.7021         3030.1946                                                                
  2887   145.5128    12893(201)         12349.4922         3031.9175                                                                
  2888   145.5628    13400(205)         12605.5400         3033.6404                                                                
  2889   145.6128    13781(209)         12872.3770         3035.3628                                                                
  2890   145.6628    13966(210)         13144.0771         3037.0857                                                                
  2891   145.7128    14239(213)         13413.8896         3038.8086                                                                
  2892   145.7628    14112(212)         13674.7979         3040.5312                                                                
  2893   145.8128    14265(214)         13919.6895         3042.2542                                                                
  2894   145.8628    14393(216)         14141.6270         3043.9766                                                                
  2895   145.9128    14460(217)         14334.4141         3045.6995                                                                
  2896   145.9628    14602(218)         14492.6465         3047.4224                                                                
  2897   146.0128    14978(221)         14612.0801         3049.1453                                                                
  2898   146.0628    14766(220)         14689.7725         3050.8682                                                                
  2899   146.1128    14893(222)         14724.0586         3052.5903                                                                
  2900   146.1628    14807(222)         14714.4014         3054.3132                                                                
  2901   146.2128    15354(226)         14661.1016         3056.0361                                                                
  2902   146.2628    15788(230)         14565.0791         3057.7590                                                                
  2903   146.3128    15783(230)         14427.6348         3059.4819                                                                
  2904   146.3628    15095(226)         14250.3428         3061.2041                                                                
  2905   146.4128    15336(228)         14034.7236         3062.9270                                                                
  2906   146.4628    15190(227)         13782.5488         3064.6499                                                                
  2907   146.5128    14865(226)         13495.6602         3066.3728                                                                
  2908   146.5628    14025(220)         13176.1182         3068.0957                                                                
  2909   146.6128    13238(214)         12826.4004         3069.8181                                                                
  2910   146.6628    12824(211)         12449.0400         3071.5410                                                                
  2911   146.7128    11808(203)         12047.3184         3073.2637                                                                
  2912   146.7628    11530(201)         11624.8477         3074.9866                                                                
  2913   146.8128    10827(195)         11185.5898         3076.7095                                                                
  2914   146.8628    10426(192)         10733.9062         3078.4319                                                                
  2915   146.9128    9782(186)         10273.8613         3080.1548                                                                 
  2916   146.9628    9519(184)          9809.9375         3081.8777                                                                 
  2917   147.0128    9020(180)          9346.3711         3083.6006                                                                 
  2918   147.0628    8767(177)          8887.2031         3085.3232                                                                 
  2919   147.1128    8446(175)          8436.1748         3087.0457                                                                 
  2920   147.1628    8379(174)          7996.8218         3088.7686                                                                 
  2921   147.2128    7963(170)          7572.0684         3090.4915                                                                 
  2922   147.2628    7745(168)          7164.9805         3092.2144                                                                 
  2923   147.3128    7132(162)          6777.7334         3093.9373                                                                 
  2924   147.3628    6771(158)          6412.3564         3095.6597                                                                 
  2925   147.4128    6210(152)          6070.1201         3097.3823                                                                 
  2926   147.4628    5994(149)          5752.1992         3099.1052                                                                 
  2927   147.5128    5667(146)          5459.2344         3100.8281                                                                 
  2928   147.5628    5232(140)          5191.4458         3102.5510                                                                 
  2929   147.6128    4907(136)          4948.7651         3104.2734                                                                 
  2930   147.6628    4739(134)          4730.5415         3105.9963                                                                 
  2931   147.7128    4455(130)          4536.0508         3107.7192                                                                 
  2932   147.7628    4062(125)          4364.2349         3109.4419                                                                 
  2933   147.8128    3893(122)          4213.8330         3111.1648                                                                 
  2934   147.8628    3882(122)          4083.4641         3112.8872                                                                 
  2935   147.9128    3800(121)          3971.5308         3114.6101                                                                 
  2936   147.9628    3760(121)          3876.5005         3116.3330                                                                 
  2937   148.0128    3725(121)          3796.7866         3118.0559                                                                 
  2938   148.0628    3752(121)          3730.8250         3119.7788                                                                 
  2939   148.1128    3509(118)          3677.1187         3121.5010                                                                 
  2940   148.1628    3447(117)          3634.2087         3123.2239                                                                 
  2941   148.2128    3539(119)          3600.7759         3124.9468                                                                 
  2942   148.2628    3543(119)          3575.5894         3126.6697                                                                 
  2943   148.3128    3373(116)          3557.5315         3128.3926                                                                 
  2944   148.3628    3336(116)          3545.5981         3130.1150                                                                 
  2945   148.4128    3390(117)          3538.8845         3131.8379                                                                 
  2946   148.4628    3410(118)          3536.5989         3133.5605                                                                 
  2947   148.5128    3437(119)          3538.0400         3135.2834                                                                 
  2948   148.5628    3413(119)          3542.5894         3137.0063                                                                 
  2949   148.6128    3610(122)          3549.7007         3138.7288                                                                 
  2950   148.6628    3503(121)          3558.8977         3140.4517                                                                 
  2951   148.7128    3533(121)          3569.7522         3142.1746                                                                 
  2952   148.7628    3593(123)          3581.8828         3143.8975                                                                 
  2953   148.8128    3454(121)          3594.9451         3145.6201                                                                 
  2954   148.8628    3512(122)          3608.6226         3147.3425                                                                 
  2955   148.9128    3715(126)          3622.6360         3149.0654                                                                 
  2956   148.9628    3577(124)          3636.7166         3150.7883                                                                 
  2957   149.0128    3690(126)          3650.6189         3152.5112                                                                 
  2958   149.0628    3632(125)          3664.1099         3154.2341                                                                 
  2959   149.1128    3600(125)          3676.9907         3155.9563                                                                 
  2960   149.1628    3521(124)          3689.0754         3157.6792                                                                 
  2961   149.2128    3603(126)          3700.1948         3159.4021                                                                 
  2962   149.2628    3690(127)          3710.2090         3161.1250                                                                 
  2963   149.3128    3650(127)          3719.0066         3162.8479                                                                 
  2964   149.3628    3603(127)          3726.5068         3164.5703                                                                 
  2965   149.4128    3641(128)          3732.6682         3166.2930                                                                 
  2966   149.4628    3790(130)          3737.4785         3168.0159                                                                 
  2967   149.5128    3680(129)          3740.9617         3169.7388                                                                 
  2968   149.5628    3677(129)          3743.1746         3171.4617                                                                 
  2969   149.6128    3734(130)          3744.2029         3173.1841                                                                 
  2970   149.6628    3759(131)          3742.4697         3173.2188                                                                 
  2971   149.7128    3664(130)          3739.7603         3173.2188                                                                 
  2972   149.7628    3721(131)          3736.2559         3173.2188                                                                 
  2973   149.8128    3795(133)          3732.0818         3173.2188                                                                 
  2974   149.8628    3703(132)          3727.4734         3173.2188                                                                 
  2975   149.9128    3853(134)          3173.2188         3173.2188                                                                 
_pd_proc_number_of_points   2799
 
 
# The following lines are used to test the character set of files sent by     
# network email or other means. They are not part of the CIF data set.        
# abcdefghijklmnopqrstuvwxyzABCDEFGHIJKLMNOPQRSTUVWXYZ0123456789              
# !@#$%^&*()_+{}:"~<>?|\-=[];'`,./ 




_cell_formula_units_Z
1
_diffrn_source
'nuclear reactor'
_cell_length_a
4.01035(5)
_cell_length_b
3.98782(5)
_cell_length_c
3.94398(4)
_chemical_formula_analytical
K0.48Na0.48Li0.04Nb0.98Mn0.02O3
_diffrn_radiation_type
'neutron'
_publ_contact_author_email
manuel.hinterstein@gmail.com
_symmetry_space_group_name_Hall
'P -2'
_chemical_formula_weight
170.23144
_refine_ls_number_restraints
0
_computing_structure_refinement
FULLPROF
_database_code_depnum_ccdc_archive
'CCDC 1828078'
_symmetry_space_group_name_H-M
'P 1 1 m'
_cell_angle_gamma
89.6915(6)
_cell_measurement_temperature
300
_pd_char_colour
grey
_refine_ls_number_reflns
144
_diffrn_source_type
'FRMII/SPODI'
_publ_requested_journal
J.Appl.Crystallogr.
_pd_meas_number_of_points
3014
_cell_volume
63.0736(13)
_publcif_datablock.id
'{d5f9e3f5-70ad-42d7-baff-8cab751434f3}'
_symmetry_cell_setting
monoclinic
_diffrn_ambient_temperature
300
_chemical_name_common
KNN
_refine_ls_R_I_factor
0.027073
_diffrn_measurement_device_type
'powder diffractometer'
_publ_contact_author_name
'Manuel Hinterstein'
_cell_angle_alpha
90.0000
_refine_ls_number_parameters
69
_chemical_formula_sum
K0.48Na0.48Li0.04Nb0.98Mn0.02O3
_cell_angle_beta
90.0000
_pd_proc_wavelength
1.548052
loop_
_publ_author_name
_publ_author_address

;Hinterstein, Manuel
;


loop_
_atom_type_symbol
_atom_type_scat_length_neutron
_atom_type_scat_source
O 0.58030 V.F._Sears_Neutron_News_3_26_(1992)
Na 0.36300 V.F._Sears_Neutron_News_3_26_(1992)
K 0.36700 V.F._Sears_Neutron_News_3_26_(1992)
Li -0.19000 V.F._Sears_Neutron_News_3_26_(1992)
Nb 0.70540 V.F._Sears_Neutron_News_3_26_(1992)
Mn -0.37300 V.F._Sears_Neutron_News_3_26_(1992)

loop_
_symmetry_equiv_pos_as_xyz
x,y,z
x,y,-z

loop_
_atom_site_label
_atom_site_fract_x
_atom_site_fract_y
_atom_site_fract_z
_atom_site_u_iso_or_equiv
_atom_site_occupancy
_atom_site_adp_type
_atom_site_type_symbol
O1 0.540(2) 0.525(3) 0.00000 0.00841(16) 1.00000 Uiso O
O2 0.5471(15) 0.014(3) 0.50000 0.00841(16) 1.00000 Uiso O
O3 0.0407(17) 0.520(2) 0.50000 0.00841(16) 1.00000 Uiso O
Na1 0.00000 0.00000 0.00000 0.0138(4) 0.48000 Uiso Na
K1 0.00000 0.00000 0.00000 0.0138(4) 0.48000 Uiso K
Li1 0.00000 0.00000 0.00000 0.0138(4) 0.04000 Uiso Li
Nb1 0.5021(16) 0.489(2) 0.50000 0.00072(18) 0.98000 Uiso Nb
Mn1 0.5021(16) 0.489(2) 0.50000 0.00072(18) 0.02000 Uiso Mn



loop_
_refln_index_h
_refln_index_k
_refln_index_l
_refln_mult
_pd_refln_phase_id
_refln_observed_status
_refln_f_squared_meas
_refln_f_squared_calc
_refln_phase_calc
_refln_d_spacing
1 0 0 2 1 o 0.8783 0.8333 191.08 4.01030
0 1 0 2 1 o 0.8717 0.8317 184.07 3.98777
0 0 1 2 1 o 0.8408 0.8473 180.00 3.94398
1 1 0 2 1 o 0.2812 0.2824 334.18 2.83535
-1 1 0 2 1 o 0.2194 0.2168 10.34 2.82013
1 0 1 4 1 o 0.2226 0.2219 346.25 2.81197
0 1 1 4 1 o 0.2110 0.2151 345.51 2.80417
1 1 1 4 1 o 1.9127 1.9127 29.48 2.30218
-1 1 1 4 1 o 1.7533 1.7596 351.80 2.29401
2 0 0 2 1 o 6.6788 6.6939 19.70 2.00515
0 2 0 2 1 o 7.0294 6.9216 6.87 1.99388
0 0 2 2 1 o 7.1037 7.1241 0.00 1.97199
2 1 0 2 1 o 0.7341 0.7479 199.86 1.79531
1 2 0 2 1 o 0.7330 0.7328 193.58 1.78923
-2 1 0 2 1 o 0.8663 0.8625 167.83 1.78757
2 0 1 4 1 o 0.7866 0.7830 201.69 1.78741
-1 2 0 2 1 o 0.8470 0.8338 172.08 1.78156
0 2 1 4 1 o 0.8508 0.8352 177.91 1.77941
1 0 2 4 1 o 0.8445 0.8261 190.68 1.76962
0 1 2 4 1 o 0.8409 0.8251 183.80 1.76767
2 1 1 4 1 o 0.4752 0.4789 326.28 1.63399
1 2 1 4 1 o 0.4387 0.4382 323.73 1.62940
-2 1 1 4 1 o 0.2842 0.2833 19.64 1.62814
-1 2 1 4 1 o 0.2280 0.2263 335.88 1.62360
1 1 2 4 1 o 0.2800 0.2762 334.87 1.61893
-1 1 2 4 1 o 0.2173 0.2143 9.70 1.61608
2 2 0 2 1 o 5.5028 5.5693 26.61 1.41768
-2 2 0 2 1 o 6.5867 6.5536 347.22 1.41006
2 0 2 4 1 o 6.2460 6.2303 19.58 1.40598
0 2 2 4 1 o 6.4292 6.4409 6.74 1.40208
3 0 0 2 1 o 0.6716 0.7072 211.16 1.33677
2 2 1 4 1 o 0.6809 0.6910 198.82 1.33411
0 3 0 2 1 o 0.7017 0.7027 190.90 1.32925
-2 2 1 4 1 o 0.8618 0.8529 156.97 1.32776
2 1 2 4 1 o 0.7486 0.7404 199.02 1.32755
1 2 2 4 1 o 0.7386 0.7269 192.84 1.32509
-2 1 2 4 1 o 0.8678 0.8532 168.13 1.32442
-1 2 2 4 1 o 0.8378 0.8263 172.14 1.32197
0 0 3 2 1 o 0.7766 0.8329 180.00 1.31466
3 1 0 2 1 o 0.6439 0.6313 326.23 1.26951
3 0 1 4 1 o 0.3831 0.3791 331.70 1.26602
-3 1 0 2 1 o 0.4795 0.4754 27.63 1.26540
1 3 0 2 1 o 0.3608 0.3575 322.84 1.26378
-1 3 0 2 1 o 0.1836 0.1805 350.33 1.25973
0 3 1 4 1 o 0.3328 0.3268 325.52 1.25964
1 0 3 4 1 o 0.2293 0.2173 347.35 1.24925
0 1 3 4 1 o 0.2277 0.2118 346.18 1.24856
3 1 1 4 1 o 1.8983 1.8816 66.93 1.20845
-3 1 1 4 1 o 1.4787 1.4746 311.94 1.20490
1 3 1 4 1 o 1.8519 1.8451 50.55 1.20351
-1 3 1 4 1 o 1.4417 1.4294 14.52 1.20000
1 1 3 4 1 o 1.4974 1.4729 31.14 1.19269
-1 1 3 4 1 o 1.3436 1.3258 351.53 1.19155
2 2 2 4 1 o 5.1830 5.1811 26.35 1.15109
-2 2 2 4 1 o 6.1752 6.1076 347.21 1.14700
3 2 0 2 1 o 0.4967 0.5362 212.79 1.11310
2 3 0 2 1 o 0.5031 0.5359 205.30 1.11068
-3 2 0 2 1 o 0.7529 0.8006 152.46 1.10757
3 0 2 4 1 o 0.6551 0.6975 210.03 1.10650
-2 3 0 2 1 o 0.7848 0.8383 175.05 1.10518
0 3 2 4 1 o 0.6578 0.6967 190.12 1.10223
2 0 3 4 1 o 0.7265 0.7652 200.17 1.09943
0 2 3 4 1 o 0.7692 0.8191 177.63 1.09756
3 2 1 4 1 o 0.7243 0.7126 324.19 1.07125
2 3 1 4 1 o 0.7019 0.6981 320.84 1.06909
3 1 2 4 1 o 0.6012 0.6038 326.94 1.06744
-3 2 1 4 1 o 0.1807 0.1831 2.82 1.06632
-3 1 2 4 1 o 0.4491 0.4565 26.71 1.06499
-2 3 1 4 1 o 0.1987 0.2028 353.94 1.06419
1 3 2 4 1 o 0.3421 0.3483 323.52 1.06403
-1 3 2 4 1 o 0.1775 0.1812 350.00 1.06160
2 1 3 4 1 o 0.4341 0.4440 327.83 1.06068
1 2 3 4 1 o 0.4015 0.4096 325.15 1.05943
-2 1 3 4 1 o 0.2661 0.2711 17.84 1.05908
-1 2 3 4 1 o 0.2213 0.2227 336.79 1.05783
4 0 0 2 1 o 4.4717 4.4449 39.10 1.00257
0 4 0 2 1 o 5.2551 5.1024 13.10 0.99694
0 0 4 2 1 o 5.7657 5.7630 0.00 0.98600
4 1 0 2 1 o 0.6394 0.6119 212.36 0.97356
4 0 1 4 1 o 0.6142 0.5951 219.27 0.97167
-4 1 0 2 1 o 0.8359 0.8139 153.81 0.97108
3 2 2 4 1 o 0.5241 0.5302 211.23 0.96934
1 4 0 2 1 o 0.5700 0.5657 193.04 0.96872
2 3 2 4 1 o 0.5267 0.5317 203.89 0.96774
0 4 1 4 1 o 0.7879 0.7914 175.40 0.96654
-1 4 0 2 1 o 0.7335 0.7386 173.76 0.96628
-3 2 2 4 1 o 0.7807 0.7892 153.17 0.96568
-2 3 2 4 1 o 0.8140 0.8279 174.86 0.96410
2 2 3 4 1 o 0.6650 0.6775 197.01 0.96397
-2 2 3 4 1 o 0.8114 0.8290 158.09 0.96157
1 0 4 4 1 o 0.8255 0.8003 189.60 0.95748
0 1 4 4 1 o 0.8280 0.8006 183.07 0.95717
4 1 1 4 1 o 0.8393 0.8592 329.16 0.94519
3 3 0 2 1 o 0.7228 0.7353 321.84 0.94512
-4 1 1 4 1 o 0.5604 0.5788 26.00 0.94292
1 4 1 4 1 o 0.7220 0.7349 317.36 0.94075
-3 3 0 2 1 o 0.3048 0.3133 17.76 0.94004
-1 4 1 4 1 o 0.4213 0.4192 315.78 0.93852
3 0 3 4 1 o 0.3637 0.3560 333.53 0.93732
0 3 3 4 1 o 0.3324 0.3135 326.71 0.93472
1 1 4 4 1 o 0.3088 0.2624 336.97 0.93129
-1 1 4 4 1 o 0.2523 0.2101 7.85 0.93075
3 3 1 4 1 o 2.0281 2.0538 84.56 0.91910
-3 3 1 4 1 o 0.9722 0.9572 333.54 0.91443
3 1 3 4 1 o 1.5549 1.5300 69.70 0.91322
-3 1 3 4 1 o 1.1630 1.1427 309.58 0.91169
1 3 3 4 1 o 1.5066 1.4772 53.15 0.91109
-1 3 3 4 1 o 1.1119 1.0807 15.97 0.90956
4 2 0 2 1 o 3.2748 3.3357 46.15 0.89766
2 4 0 2 1 o 3.6905 3.7291 32.82 0.89461
-4 2 0 2 1 o 4.7212 4.7730 327.98 0.89379
4 0 2 4 1 o 4.0993 4.1444 38.80 0.89370
-2 4 0 2 1 o 5.2326 5.2679 353.53 0.89078
0 4 2 4 1 o 4.7512 4.7546 12.82 0.88971
2 0 4 4 1 o 5.0137 5.0498 19.17 0.88481
0 2 4 4 1 o 5.1388 5.2178 6.34 0.88383
4 2 1 4 1 o 0.4751 0.4655 215.29 0.87527
4 1 2 4 1 o 0.6166 0.6036 211.06 0.87297
2 4 1 4 1 o 0.5985 0.5875 193.95 0.87245
-4 2 1 4 1 o 0.7263 0.7145 139.66 0.87168
-4 1 2 4 1 o 0.8139 0.8006 154.54 0.87118
1 4 2 4 1 o 0.5735 0.5626 192.02 0.86947
-2 4 1 4 1 o 0.8954 0.8788 156.40 0.86890
-1 4 2 4 1 o 0.7493 0.7318 173.51 0.86771
2 1 4 4 1 o 0.7307 0.7159 196.74 0.86423
1 2 4 4 1 o 0.7188 0.7061 190.82 0.86355
-2 1 4 4 1 o 0.8361 0.8215 168.92 0.86337
-1 2 4 4 1 o 0.8126 0.7994 172.27 0.86269
3 3 2 4 1 o 0.6599 0.7040 322.41 0.85229
3 2 3 4 1 o 0.6227 0.6528 325.45 0.84950
-3 3 2 4 1 o 0.2912 0.3049 16.57 0.84856
2 3 3 4 1 o 0.6143 0.6417 321.99 0.84842
-3 2 3 4 1 o 0.1777 0.1840 1.41 0.84704
-2 3 3 4 1 o 0.1986 0.2029 352.98 0.84597
4 2 2 4 1 o 3.0720 3.1045 45.65 0.81699
2 4 2 4 1 o 3.4837 3.4697 32.35 0.81470
-4 2 2 4 1 o 4.4978 4.4604 328.14 0.81407
-2 4 2 4 1 o 4.9843 4.9206 353.39 0.81180
2 2 4 4 1 o 4.2843 4.1938 25.48 0.80947
-2 2 4 4 1 o 5.0459 4.9697 347.22 0.80804
4 3 0 2 1 o 0.3460 0.3649 214.76 0.80251
5 0 0 2 1 o 0.4553 0.4785 225.10 0.80206



# powder data simulated using PLATON:

data_monoclinic_ND_simulated_1.5481

_publcif_pd_cifplot 'simulated 2021-03-25'

