data_cubic_2_ND
 
_pd_block_id    KNN-Li2Mn_776K_300mm_varH
#==============================================================================             
# 9. INSTRUMENT CHARACTERIZATION                                                            
                                                                                            
_exptl_special_details                                                                      
; ?                                                                                         
;                                                                                           
                                                                                            
# if regions of the data are excluded, the reason(s) are supplied here:                     
_pd_proc_info_excluded_regions                                                              
; ?                                                                                         
;                                                                                           
                                                                                            
# The following item is used to identify the equipment used to record                       
# the powder pattern when the diffractogram was measured at a laboratory                    
# other than the authors' home institution, e.g. when neutron or synchrotron                
# radiation is used.                                                                        
                                                                                            
_pd_instr_location                                                                          
; ?                                                                                         
;                                                                                           
_pd_calibration_special_details           # description of the method used                  
                                          # to calibrate the instrument                     
; ?                                                                                         
;                                                                                           
                                                                                            
_diffrn_ambient_temperature    ?                                                            
_diffrn_source                 ?                                                            
_diffrn_source_target          ?                                                            
_diffrn_source_type            ?                                                            
_diffrn_measurement_device_type ?                                                            
_diffrn_detector               ?                                                            
_diffrn_detector_type          ?  # make or model of detector                               
                                                                                            
_pd_meas_scan_method           ?  # options are 'step', 'cont',                             
                                  # 'tof', 'fixed' or                                       
                                  # 'disp' (= dispersive)                                   
_pd_meas_special_details                                                                    
;  ?                                                                                        
;                                                                                           
                                                                                            
# The following two items identify the program(s) used (if appropriate).                    
_computing_data_collection        ?                                                         
_computing_data_reduction         ?                                                         
                                                                                            
# Describe any processing performed on the data, prior to refinement.                       
# For example: a manual Lp correction or a precomputed absorption correction                
_pd_proc_info_data_reduction      ?                                                         
                                                                                            
# The following item is used for angular dispersive measurements only.                      
                                                                                            
_diffrn_radiation_monochromator   ?                                                         
                                                                                            
# The following items are used to define the size of the instrument.                        
# Not all distances are appropriate for all instrument types.                               
                                                                                            
_pd_instr_dist_src/mono           ?                                                         
_pd_instr_dist_mono/spec          ?                                                         
_pd_instr_dist_src/spec           ?                                                         
_pd_instr_dist_spec/anal          ?                                                         
_pd_instr_dist_anal/detc          ?                                                         
_pd_instr_dist_spec/detc          ?                                                         
                                                                                            
# 10. Specimen size and mounting information                                                
                                                                                            
# The next three fields give the specimen dimensions in mm.  The equatorial                 
# plane contains the incident and diffracted beam.                                          
                                                                                            
_pd_spec_size_axial               ?       # perpendicular to                                
                                          # equatorial plane                                
                                                                                            
_pd_spec_size_equat               ?       # parallel to                                     
                                          # scattering vector                               
                                          # in transmission                                 
                                                                                            
_pd_spec_size_thick               ?       # parallel to                                     
                                          # scattering vector                               
                                          # in reflection                                   
                                                                                            
_pd_spec_mounting                         # This field should be                            
                                          # used to give details of the                     
                                          # container.                                      
; ?                                                                                         
;                                                                                           
                                                                                            
_pd_spec_mount_mode               ?       # options are 'reflection'                        
                                          # or 'transmission'                               
                                                                                            
_pd_spec_shape                    ?       # options are 'cylinder'                          
                                          # 'flat_sheet' or 'irregular'                     
                                                                                            
     
_diffrn_radiation_probe                neutrons 
_diffrn_radiation_wavelength            1.5482
     
#  The following profile R-factors are NOT CORRECTED for background
#  The sum is extended to all non-excluded points.
#  These are the current CIF standard
 
_pd_proc_ls_prof_R_factor               23.6626
_pd_proc_ls_prof_wR_factor              35.4863
_pd_proc_ls_prof_wR_expected             1.6260
 
#  The following profile R-factors are CORRECTED for background
#  The sum is extended to all non-excluded points.
#  These items are not in the current CIF standard, but are defined above
 
_pd_proc_ls_prof_cR_factor               56.3150
_pd_proc_ls_prof_cwR_factor              59.1206
_pd_proc_ls_prof_cwR_expected             2.7089
 
#  The following items are not in the CIF standard, but are defined above
 
_pd_proc_ls_prof_chi2               476.3191
_pd_proc_ls_prof_echi2              485.7040
  
_pd_proc_ls_background_function   
;   FullProf Background function number  
;                                                                              
                                                                               
_exptl_absorpt_process_details                                                 
;   FullProf Absorption/surface roughness correction    
 No correction is applied ?.                                                   
;                                                                              
                                                                               
_pd_proc_ls_profile_function                                                   
;                                                                              
;                                                                              
_pd_proc_ls_peak_cutoff 0.00500                                                
_pd_calc_method  "   Rietveld Refinement" 
                                                                               
#---- raw/calc data loop -----   
_pd_meas_2theta_range_min       1.250000
_pd_meas_2theta_range_max     151.899994
_pd_meas_2theta_range_inc       0.050019
_pd_proc_2theta_range_min       1.241330
_pd_proc_2theta_range_max     151.891327
_pd_proc_2theta_range_inc       0.050019
 
loop_
_pd_proc_point_id
_pd_proc_2theta_corrected   
_pd_proc_intensity_total
_pd_calc_intensity_total
_pd_proc_intensity_bkg_calc
 
   177    10.0413    2037(166)          1886.0148         1886.0148                                                                 
   178    10.0913    2212(172)          1886.0148         1886.0148                                                                 
   179    10.1413    2155(169)          1886.0148         1886.0148                                                                 
   180    10.1913    2130(168)          1886.0148         1886.0148                                                                 
   181    10.2413    1958(160)          1886.0148         1886.0148                                                                 
   182    10.2913    2144(167)          1886.0148         1886.0148                                                                 
   183    10.3413    2165(168)          1886.0148         1886.0148                                                                 
   184    10.3913    2087(164)          1886.0148         1886.0148                                                                 
   185    10.4413    2064(163)          1886.0148         1886.0148                                                                 
   186    10.4913    2055(162)          1886.0148         1886.0148                                                                 
   187    10.5413    2043(161)          1886.0148         1886.0148                                                                 
   188    10.5913    2212(167)          1886.0148         1886.0148                                                                 
   189    10.6413    2144(164)          1886.0148         1886.0148                                                                 
   190    10.6913    2123(162)          1886.0148         1886.0148                                                                 
   191    10.7413    2116(162)          1886.0148         1886.0148                                                                 
   192    10.7913    1971(155)          1886.0148         1886.0148                                                                 
   193    10.8413    1984(156)          1886.0148         1886.0148                                                                 
   194    10.8913    2076(159)          1886.0148         1886.0148                                                                 
   195    10.9413    2014(156)          1886.0148         1886.0148                                                                 
   196    10.9913    1983(154)          1886.0148         1886.0148                                                                 
   197    11.0413    1987(154)          1886.0148         1886.0148                                                                 
   198    11.0913    1971(153)          1886.0148         1886.0148                                                                 
   199    11.1413    1891(149)          1886.0148         1886.0148                                                                 
   200    11.1913    2000(153)          1886.0148         1886.0148                                                                 
   201    11.2413    2007(153)          1886.0148         1886.0148                                                                 
   202    11.2913    2089(155)          1886.0148         1886.0148                                                                 
   203    11.3413    2056(154)          1886.0148         1886.0148                                                                 
   204    11.3913    2013(152)          1886.0148         1886.0148                                                                 
   205    11.4413    1993(150)          1886.0148         1886.0148                                                                 
   206    11.4913    1944(148)          1886.0148         1886.0148                                                                 
   207    11.5413    1918(147)          1886.0148         1886.0148                                                                 
   208    11.5913    1977(148)          1886.0148         1886.0148                                                                 
   209    11.6413    1965(148)          1886.0148         1886.0148                                                                 
   210    11.6913    1966(147)          1886.0148         1886.0148                                                                 
   211    11.7413    2040(149)          1886.5962         1886.5962                                                                 
   212    11.7913    2022(148)          1885.8508         1885.8508                                                                 
   213    11.8413    1935(145)          1885.1053         1885.1053                                                                 
   214    11.8913    1970(146)          1884.3600         1884.3600                                                                 
   215    11.9413    1821(139)          1883.6145         1883.6145                                                                 
   216    11.9913    1726(135)          1882.8691         1882.8691                                                                 
   217    12.0413    1824(139)          1882.1237         1882.1237                                                                 
   218    12.0913    1913(142)          1881.3783         1881.3783                                                                 
   219    12.1413    1883(140)          1880.6329         1880.6329                                                                 
   220    12.1913    1851(139)          1879.8875         1879.8875                                                                 
   221    12.2413    1975(143)          1879.1421         1879.1421                                                                 
   222    12.2913    1996(143)          1878.3966         1878.3966                                                                 
   223    12.3413    2040(144)          1877.6512         1877.6512                                                                 
   224    12.3913    1854(137)          1876.9058         1876.9058                                                                 
   225    12.4413    2047(144)          1876.1604         1876.1604                                                                 
   226    12.4913    1967(141)          1875.4150         1875.4150                                                                 
   227    12.5413    2119(145)          1874.6696         1874.6696                                                                 
   228    12.5913    1935(139)          1873.9242         1873.9242                                                                 
   229    12.6413    1927(138)          1873.1787         1873.1787                                                                 
   230    12.6913    1960(139)          1872.4333         1872.4333                                                                 
   231    12.7413    2003(140)          1871.8583         1871.6879                                                                 
   232    12.7913    2113(143)          1871.1146         1870.9425                                                                 
   233    12.8413    2016(139)          1870.3711         1870.1971                                                                 
   234    12.8913    2010(139)          1869.6274         1869.4517                                                                 
   235    12.9413    2065(140)          1868.8839         1868.7063                                                                 
   236    12.9913    2112(142)          1868.1404         1867.9608                                                                 
   237    13.0413    1942(135)          1867.3970         1867.2155                                                                 
   238    13.0913    1941(135)          1866.6534         1866.4700                                                                 
   239    13.1413    1881(133)          1865.9100         1865.7246                                                                 
   240    13.1913    1973(135)          1865.1666         1864.9792                                                                 
   241    13.2413    1921(133)          1864.4232         1864.2338                                                                 
   242    13.2913    1918(133)          1863.6799         1863.4884                                                                 
   243    13.3413    1939(133)          1862.9366         1862.7429                                                                 
   244    13.3913    1775(127)          1862.1934         1861.9976                                                                 
   245    13.4413    1881(130)          1861.4501         1861.2521                                                                 
   246    13.4913    1949(132)          1860.7069         1860.5067                                                                 
   247    13.5413    1923(131)          1859.9639         1859.7614                                                                 
   248    13.5913    1833(128)          1859.2207         1859.0159                                                                 
   249    13.6413    1961(132)          1858.4777         1858.2705                                                                 
   250    13.6913    1774(125)          1857.7346         1857.5250                                                                 
   251    13.7413    1759(124)          1856.9916         1856.7797                                                                 
   252    13.7913    1993(132)          1856.2487         1856.0342                                                                 
   253    13.8413    1960(130)          1855.5057         1855.2888                                                                 
   254    13.8913    1983(131)          1854.7629         1854.5435                                                                 
   255    13.9413    1972(130)          1854.0200         1853.7980                                                                 
   256    13.9913    1806(124)          1853.2773         1853.0526                                                                 
   257    14.0413    1767(122)          1852.5345         1852.3071                                                                 
   258    14.0913    1772(122)          1851.7920         1851.5618                                                                 
   259    14.1413    1790(123)          1851.0493         1850.8164                                                                 
   260    14.1913    1715(120)          1850.3068         1850.0709                                                                 
   261    14.2413    1832(123)          1849.5642         1849.3256                                                                 
   262    14.2913    1919(126)          1848.8218         1848.5801                                                                 
   263    14.3413    1938(126)          1848.0793         1847.8347                                                                 
   264    14.3913    1939(126)          1847.3369         1847.0892                                                                 
   265    14.4413    2017(128)          1846.5947         1846.3439                                                                 
   266    14.4913    1838(122)          1845.8524         1845.5984                                                                 
   267    14.5413    1876(123)          1845.1102         1844.8530                                                                 
   268    14.5913    1899(123)          1844.3682         1844.1077                                                                 
   269    14.6413    1796(120)          1843.6261         1843.3622                                                                 
   270    14.6913    1810(120)          1842.8842         1842.6168                                                                 
   271    14.7413    1783(119)          1842.1422         1841.8713                                                                 
   272    14.7913    1820(119)          1841.4004         1841.1260                                                                 
   273    14.8413    1806(119)          1840.6586         1840.3805                                                                 
   274    14.8913    1861(120)          1839.9169         1839.6351                                                                 
   275    14.9413    1872(120)          1839.1753         1838.8898                                                                 
   276    14.9913    1960(123)          1838.4336         1838.1443                                                                 
   277    15.0413    1856(119)          1837.6923         1837.3989                                                                 
   278    15.0913    1800(117)          1836.9508         1836.6534                                                                 
   279    15.1413    1718(114)          1836.2095         1835.9081                                                                 
   280    15.1913    1791(116)          1835.4684         1835.1627                                                                 
   281    15.2413    1693(113)          1834.7272         1834.4172                                                                 
   282    15.2913    1813(116)          1833.9861         1833.6719                                                                 
   283    15.3413    1834(117)          1833.2451         1832.9264                                                                 
   284    15.3913    1978(121)          1832.5043         1832.1810                                                                 
   285    15.4413    1929(119)          1831.7634         1831.4355                                                                 
   286    15.4913    1868(117)          1831.0228         1830.6902                                                                 
   287    15.5413    1819(115)          1830.2823         1829.9448                                                                 
   288    15.5913    1881(117)          1829.5419         1829.1993                                                                 
   289    15.6413    1745(112)          1828.8015         1828.4540                                                                 
   290    15.6913    1718(111)          1828.0613         1827.7085                                                                 
   291    15.7413    1799(113)          1827.3212         1826.9631                                                                 
   292    15.7913    1713(110)          1826.5812         1826.2177                                                                 
   293    15.8413    1616(107)          1825.8413         1825.4723                                                                 
   294    15.8913    1494(102)          1825.1017         1824.7269                                                                 
   295    15.9413    1495(102)          1824.3619         1823.9814                                                                 
   296    15.9913    1325(96)          1823.6226         1823.2361                                                                  
   297    16.0413    1487(101)          1822.8832         1822.4906                                                                 
   298    16.0913    1615(105)          1822.1440         1821.7452                                                                 
   299    16.1413    1602(105)          1821.4049         1820.9998                                                                 
   300    16.1913    1694(107)          1820.6661         1820.2544                                                                 
   301    16.2413    1725(108)          1819.9275         1819.5090                                                                 
   302    16.2913    1763(109)          1819.1888         1818.7635                                                                 
   303    16.3413    1768(109)          1818.4506         1818.0182                                                                 
   304    16.3913    1908(113)          1817.7123         1817.2727                                                                 
   305    16.4413    1779(109)          1816.9742         1816.5273                                                                 
   306    16.4913    1818(110)          1816.2363         1815.7819                                                                 
   307    16.5413    1783(108)          1815.4988         1815.0365                                                                 
   308    16.5913    1879(111)          1814.7614         1814.2911                                                                 
   309    16.6413    1816(109)          1814.0240         1813.5457                                                                 
   310    16.6913    1641(103)          1813.2871         1812.8003                                                                 
   311    16.7413    1820(109)          1812.5502         1812.0548                                                                 
   312    16.7913    1786(107)          1811.8137         1811.3094                                                                 
   313    16.8413    1710(105)          1811.0773         1810.5640                                                                 
   314    16.8913    1717(105)          1810.3413         1809.8186                                                                 
   315    16.9413    1845(108)          1809.6055         1809.0732                                                                 
   316    16.9913    1828(108)          1808.8699         1808.3278                                                                 
   317    17.0413    1620(101)          1808.1346         1807.5824                                                                 
   318    17.0913    1712(104)          1807.3997         1806.8369                                                                 
   319    17.1413    1779(105)          1806.6649         1806.0916                                                                 
   320    17.1913    1728(104)          1805.9305         1805.3461                                                                 
   321    17.2413    1649(101)          1805.1965         1804.6007                                                                 
   322    17.2913    1736(103)          1804.4628         1803.8553                                                                 
   323    17.3413    1692(102)          1803.7294         1803.1099                                                                 
   324    17.3913    1662(101)          1802.9965         1802.3645                                                                 
   325    17.4413    1773(104)          1802.2637         1801.6190                                                                 
   326    17.4913    1817(105)          1801.5315         1800.8737                                                                 
   327    17.5413    1709(101)          1800.7997         1800.1283                                                                 
   328    17.5913    1651(99)          1800.0682         1799.3828                                                                  
   329    17.6413    1726(101)          1799.3373         1798.6375                                                                 
   330    17.6913    1686(100)          1798.6067         1797.8920                                                                 
   331    17.7413    1795(103)          1797.8767         1797.1466                                                                 
   332    17.7913    1657(99)          1797.1471         1796.4011                                                                  
   333    17.8413    1442(92)          1796.4181         1795.6558                                                                  
   334    17.8913    1555(95)          1795.6897         1794.9104                                                                  
   335    17.9413    1473(92)          1794.9617         1794.1649                                                                  
   336    17.9913    1421(90)          1794.2345         1793.4196                                                                  
   337    18.0413    1467(92)          1793.5077         1792.6741                                                                  
   338    18.0913    1600(96)          1792.7817         1791.9287                                                                  
   339    18.1413    1538(94)          1792.0563         1791.1832                                                                  
   340    18.1913    1721(99)          1791.3318         1790.4379                                                                  
   341    18.2413    1733(99)          1790.6078         1789.6924                                                                  
   342    18.2913    1808(101)          1789.8848         1788.9470                                                                 
   343    18.3413    1672(97)          1789.1625         1788.2017                                                                  
   344    18.3913    1729(98)          1788.4410         1787.4562                                                                  
   345    18.4413    1814(100)          1787.7206         1786.7108                                                                 
   346    18.4913    1815(100)          1787.0011         1785.9653                                                                 
   347    18.5413    1752(98)          1786.2826         1785.2200                                                                  
   348    18.5913    1805(99)          1785.5652         1784.4746                                                                  
   349    18.6413    1757(98)          1784.8488         1783.7291                                                                  
   350    18.6913    1773(98)          1784.1337         1782.9838                                                                  
   351    18.7413    1707(96)          1783.4197         1782.2383                                                                  
   352    18.7913    1843(99)          1782.7070         1781.4929                                                                  
   353    18.8413    1798(98)          1781.9958         1780.7474                                                                  
   354    18.8913    1870(100)          1781.2861         1780.0021                                                                 
   355    18.9413    1732(96)          1780.5778         1779.2566                                                                  
   356    18.9913    1741(96)          1779.8712         1778.5112                                                                  
   357    19.0413    1791(97)          1779.1665         1777.7659                                                                  
   358    19.0913    1813(97)          1778.4634         1777.0204                                                                  
   359    19.1413    1784(96)          1777.7625         1776.2750                                                                  
   360    19.1913    1860(98)          1777.0634         1775.5295                                                                  
   361    19.2413    1784(96)          1776.3667         1774.7842                                                                  
   362    19.2913    1753(95)          1775.6724         1774.0388                                                                  
   363    19.3413    1811(96)          1774.9803         1773.2933                                                                  
   364    19.3913    1748(94)          1774.2911         1772.5480                                                                  
   365    19.4413    1750(94)          1773.6047         1771.8025                                                                  
   366    19.4913    1772(95)          1772.9214         1771.0571                                                                  
   367    19.5413    1716(93)          1772.2415         1770.3118                                                                  
   368    19.5913    1833(96)          1771.5647         1769.5663                                                                  
   369    19.6413    1869(97)          1770.8920         1768.8209                                                                  
   370    19.6913    1851(96)          1770.2230         1768.0754                                                                  
   371    19.7413    1801(94)          1769.5586         1767.3301                                                                  
   372    19.7913    1678(91)          1768.8987         1766.5846                                                                  
   373    19.8413    1645(90)          1768.2439         1765.8392                                                                  
   374    19.8913    1641(89)          1767.5945         1765.0938                                                                  
   375    19.9413    1538(86)          1766.9509         1764.3484                                                                  
   376    19.9913    1600(88)          1766.3138         1763.6030                                                                  
   377    20.0413    1532(86)          1765.6835         1762.8575                                                                  
   378    20.0913    1592(87)          1765.0607         1762.1122                                                                  
   379    20.1413    1667(89)          1764.4458         1761.3667                                                                  
   380    20.1913    1662(89)          1763.8401         1760.6213                                                                  
   381    20.2413    1737(91)          1763.2438         1759.8759                                                                  
   382    20.2913    1778(92)          1762.6583         1759.1305                                                                  
   383    20.3413    1776(91)          1762.0845         1758.3851                                                                  
   384    20.3913    1788(91)          1761.5233         1757.6396                                                                  
   385    20.4413    1800(92)          1760.9763         1756.8943                                                                  
   386    20.4913    1830(92)          1760.4448         1756.1488                                                                  
   387    20.5413    1808(91)          1759.9305         1755.4034                                                                  
   388    20.5913    1667(88)          1759.4354         1754.6580                                                                  
   389    20.6413    1756(90)          1758.9617         1753.9126                                                                  
   390    20.6913    1907(93)          1758.5116         1753.1672                                                                  
   391    20.7413    1865(92)          1758.0881         1752.4218                                                                  
   392    20.7913    1897(93)          1757.6946         1751.6764                                                                  
   393    20.8413    1882(92)          1757.3346         1750.9309                                                                  
   394    20.8913    1760(89)          1757.0129         1750.1855                                                                  
   395    20.9413    1979(94)          1756.7344         1749.4401                                                                  
   396    20.9913    1886(92)          1756.5054         1748.6947                                                                  
   397    21.0413    1875(91)          1756.3329         1747.9493                                                                  
   398    21.0913    1787(89)          1756.2253         1747.2039                                                                  
   399    21.1413    1917(92)          1756.1932         1746.4585                                                                  
   400    21.1913    1839(90)          1756.2485         1745.7130                                                                  
   401    21.2413    1920(91)          1756.4062         1744.9677                                                                  
   402    21.2913    1844(89)          1756.6843         1744.2223                                                                  
   403    21.3413    1906(91)          1757.1050         1743.4768                                                                  
   404    21.3913    1887(90)          1757.6959         1742.7314                                                                  
   405    21.4413    1834(89)          1758.4915         1741.9860                                                                  
   406    21.4913    1954(91)          1759.5352         1741.2406                                                                  
   407    21.5413    1897(90)          1760.8824         1740.4951                                                                  
   408    21.5913    1876(89)          1762.6061         1739.7498                                                                  
   409    21.6413    1851(88)          1764.8025         1739.0044                                                                  
   410    21.6913    1835(88)          1767.6160         1738.2589                                                                  
   411    21.7413    1789(87)          1771.3279         1737.5135                                                                  
   412    21.7913    1772(86)          1776.7395         1736.7681                                                                  
   413    21.8413    1795(86)          1786.6545         1736.0227                                                                  
   414    21.8913    1803(86)          1810.7828         1735.2772                                                                  
   415    21.9413    1845(87)          1879.2092         1734.5319                                                                  
   416    21.9913    2456(100)          2071.9075         1733.7864                                                                 
   417    22.0413    4020(128)          2566.9507         1733.0410                                                                 
   418    22.0913    6997(169)          3686.8120         1732.2957                                                                 
   419    22.1413    12445(225)          5880.2515         1731.5502                                                                
   420    22.1913    21588(296)          9555.4785         1730.8048                                                                
   421    22.2413    33136(367)         14744.4150         1730.0593                                                                
   422    22.2913    45652(429)         20759.9238         1729.3140                                                                
   423    22.3413    54005(466)         26155.2500         1728.5686                                                                
   424    22.3913    55813(473)         29205.9121         1727.8231                                                                
   425    22.4413    51927(455)         28780.3711         1727.0778                                                                
   426    22.4913    41876(408)         25042.9902         1726.3323                                                                
   427    22.5413    30051(345)         19345.0625         1725.5869                                                                
   428    22.5913    18986(274)         13415.3926         1724.8414                                                                
   429    22.6413    10897(207)          8547.1709         1724.0961                                                                
   430    22.6913    5917(152)          5239.3379         1723.3506                                                                 
   431    22.7413    3368(114)          3337.3528         1722.6052                                                                 
   432    22.7913    2229(93)          2398.6934         1721.8599                                                                  
   433    22.8413    1956(87)          1995.7572         1721.1144                                                                  
   434    22.8913    1849(84)          1841.9869         1720.3690                                                                  
   435    22.9413    1852(84)          1787.0630         1719.6235                                                                  
   436    22.9913    1821(83)          1766.3655         1718.8782                                                                  
   437    23.0413    1817(83)          1756.4929         1718.1328                                                                  
   438    23.0913    1998(87)          1750.1218         1717.3873                                                                  
   439    23.1413    1937(85)          1745.1705         1716.6420                                                                  
   440    23.1913    1771(81)          1741.0282         1715.8965                                                                  
   441    23.2413    1911(84)          1737.4628         1715.1511                                                                  
   442    23.2913    1779(81)          1734.3446         1714.4058                                                                  
   443    23.3413    1859(83)          1731.5836         1713.6603                                                                  
   444    23.3913    1842(82)          1729.1124         1712.9149                                                                  
   445    23.4413    1961(85)          1726.8782         1712.1694                                                                  
   446    23.4913    1894(83)          1724.8398         1711.4241                                                                  
   447    23.5413    1781(80)          1722.9647         1710.6786                                                                  
   448    23.5913    1782(80)          1721.2266         1709.9332                                                                  
   449    23.6413    1803(81)          1719.6044         1709.1877                                                                  
   450    23.6913    1867(82)          1718.0808         1708.4424                                                                  
   451    23.7413    1880(82)          1716.6417         1707.6970                                                                  
   452    23.7913    1754(79)          1715.2753         1706.9515                                                                  
   453    23.8413    1685(77)          1713.9719         1706.2062                                                                  
   454    23.8913    1655(76)          1712.7233         1705.4607                                                                  
   455    23.9413    1634(76)          1711.5226         1704.7153                                                                  
   456    23.9913    1570(74)          1710.3639         1703.9700                                                                  
   457    24.0413    1500(72)          1709.2422         1703.2245                                                                  
   458    24.0913    1597(74)          1708.1532         1702.4790                                                                  
   459    24.1413    1601(74)          1707.0935         1701.7336                                                                  
   460    24.1913    1566(73)          1706.0597         1700.9883                                                                  
   461    24.2413    1628(75)          1705.0490         1700.2428                                                                  
   462    24.2913    1782(78)          1704.0592         1699.4974                                                                  
   463    24.3413    1888(80)          1703.0879         1698.7520                                                                  
   464    24.3913    1863(80)          1702.1335         1698.0066                                                                  
   465    24.4413    1831(79)          1701.1945         1697.2612                                                                  
   466    24.4913    1730(76)          1700.2690         1696.5157                                                                  
   467    24.5413    1732(76)          1699.3563         1695.7704                                                                  
   468    24.5913    1794(78)          1698.4548         1695.0249                                                                  
   469    24.6413    1819(78)          1697.5638         1694.2795                                                                  
   470    24.6913    1733(76)          1696.6824         1693.5341                                                                  
   471    24.7413    1807(77)          1695.8097         1692.7887                                                                  
   472    24.7913    1858(78)          1694.9449         1692.0433                                                                  
   473    24.8413    1826(77)          1694.0875         1691.2979                                                                  
   474    24.8913    1794(77)          1693.2369         1690.5525                                                                  
   475    24.9413    1842(77)          1692.3926         1689.8070                                                                  
   476    24.9913    1773(76)          1691.5541         1689.0616                                                                  
   477    25.0413    1869(78)          1690.7209         1688.3163                                                                  
   478    25.0913    1862(77)          1689.8926         1687.5708                                                                  
   479    25.1413    1771(75)          1689.0690         1686.8254                                                                  
   480    25.1913    1814(76)          1688.2496         1686.0800                                                                  
   481    25.2413    1754(75)          1687.4343         1685.3346                                                                  
   482    25.2913    1821(76)          1686.6227         1684.5891                                                                  
   483    25.3413    1848(76)          1685.8146         1683.8438                                                                  
   484    25.3913    1851(76)          1685.0098         1683.0984                                                                  
   485    25.4413    1861(76)          1684.2078         1682.3529                                                                  
   486    25.4913    1808(75)          1683.4088         1681.6075                                                                  
   487    25.5413    1793(75)          1682.6124         1680.8621                                                                  
   488    25.5913    1805(75)          1681.8187         1680.1167                                                                  
   489    25.6413    1728(73)          1681.0272         1679.3712                                                                  
   490    25.6913    1837(75)          1680.2380         1678.6259                                                                  
   491    25.7413    1827(75)          1679.4508         1677.8804                                                                  
   492    25.7913    1617(70)          1678.6658         1677.1350                                                                  
   493    25.8413    1616(70)          1677.8826         1676.3896                                                                  
   494    25.8913    1517(68)          1677.1011         1675.6442                                                                  
   495    25.9413    1589(69)          1676.3213         1674.8988                                                                  
   496    25.9913    1609(70)          1675.5430         1674.1533                                                                  
   497    26.0413    1440(66)          1674.7664         1673.4080                                                                  
   498    26.0913    1512(67)          1673.9911         1672.6626                                                                  
   499    26.1413    1634(70)          1673.2170         1671.9171                                                                  
   500    26.1913    1673(71)          1672.4446         1671.1718                                                                  
   501    26.2413    1774(72)          1671.6731         1670.4263                                                                  
   502    26.2913    1750(72)          1670.9030         1669.6809                                                                  
   503    26.3413    1816(73)          1670.1338         1668.9354                                                                  
   504    26.3913    1840(73)          1669.3658         1668.1901                                                                  
   505    26.4413    1825(73)          1668.5988         1667.4446                                                                  
   506    26.4913    1749(71)          1667.8329         1666.6992                                                                  
   507    26.5413    1778(72)          1667.2615         1666.1475                                                                  
   508    26.5913    1801(72)          1669.7261         1668.6307                                                                  
   509    26.6413    1769(71)          1672.1915         1671.1140                                                                  
   510    26.6913    1838(73)          1674.6578         1673.5973                                                                  
   511    26.7413    1772(71)          1677.1249         1676.0806                                                                  
   512    26.7913    1742(70)          1679.5927         1678.5637                                                                  
   513    26.8413    1816(72)          1682.0615         1681.0471                                                                  
   514    26.8913    1806(71)          1684.5308         1683.5303                                                                  
   515    26.9413    1741(70)          1687.0010         1686.0137                                                                  
   516    26.9913    1736(70)          1689.4717         1688.4968                                                                  
   517    27.0413    1805(71)          1691.9431         1690.9801                                                                  
   518    27.0913    1750(70)          1694.4153         1693.4634                                                                  
   519    27.1413    1838(71)          1696.8881         1695.9467                                                                  
   520    27.1913    1932(73)          1699.3615         1698.4299                                                                  
   521    27.2413    1902(72)          1701.8354         1700.9132                                                                  
   522    27.2913    1861(71)          1704.3099         1703.3964                                                                  
   523    27.3413    1920(72)          1706.7853         1705.8798                                                                  
   524    27.3913    1887(72)          1709.2610         1708.3629                                                                  
   525    27.4413    1893(72)          1711.7374         1710.8463                                                                  
   526    27.4913    1778(69)          1714.2142         1713.3295                                                                  
   527    27.5413    1822(70)          1716.6918         1715.8127                                                                  
   528    27.5913    1815(70)          1719.1698         1718.2960                                                                  
   529    27.6413    1749(68)          1721.6484         1720.7793                                                                  
   530    27.6913    1780(69)          1724.1277         1723.2626                                                                  
   531    27.7413    1803(69)          1726.6073         1725.7458                                                                  
   532    27.7913    1779(69)          1729.0875         1728.2290                                                                  
   533    27.8413    1685(67)          1731.5685         1730.7124                                                                  
   534    27.8913    1649(66)          1734.0498         1733.1956                                                                  
   535    27.9413    1582(64)          1736.5319         1735.6790                                                                  
   536    27.9913    1546(63)          1739.0143         1738.1621                                                                  
   537    28.0413    1665(66)          1741.4974         1740.6454                                                                  
   538    28.0913    1686(66)          1743.9811         1743.1287                                                                  
   539    28.1413    1644(65)          1746.4655         1745.6119                                                                  
   540    28.1913    1652(65)          1748.9503         1748.0952                                                                  
   541    28.2413    1642(65)          1751.4359         1750.5785                                                                  
   542    28.2913    1720(66)          1753.9219         1753.0616                                                                  
   543    28.3413    1724(66)          1756.4089         1755.5450                                                                  
   544    28.3913    1768(67)          1758.8962         1758.0282                                                                  
   545    28.4413    1833(68)          1761.3845         1760.5115                                                                  
   546    28.4913    1836(68)          1763.8734         1762.9948                                                                  
   547    28.5413    1717(66)          1766.3632         1765.4780                                                                  
   548    28.5913    1669(65)          1768.8535         1767.9613                                                                  
   549    28.6413    1695(65)          1771.3448         1770.4446                                                                  
   550    28.6913    1754(66)          1773.8369         1772.9279                                                                  
   551    28.7413    1767(66)          1776.3300         1775.4111                                                                  
   552    28.7913    1833(67)          1778.8237         1777.8943                                                                  
   553    28.8413    1832(67)          1781.3188         1780.3777                                                                  
   554    28.8913    1882(68)          1783.8146         1782.8608                                                                  
   555    28.9413    1768(66)          1786.3116         1785.3441                                                                  
   556    28.9913    1833(67)          1788.8098         1787.8274                                                                  
   557    29.0413    1823(66)          1791.3092         1790.3107                                                                  
   558    29.0913    1836(67)          1793.8098         1792.7939                                                                  
   559    29.1413    1788(66)          1796.3116         1795.2771                                                                  
   560    29.1913    1803(66)          1798.8153         1797.7605                                                                  
   561    29.2413    1854(67)          1801.3202         1800.2437                                                                  
   562    29.2913    1881(67)          1803.8268         1802.7269                                                                  
   563    29.3413    1817(66)          1806.3352         1805.2102                                                                  
   564    29.3913    1684(63)          1808.8456         1807.6935                                                                  
   565    29.4413    1850(66)          1811.3579         1810.1768                                                                  
   566    29.4913    1824(65)          1813.8726         1812.6600                                                                  
   567    29.5413    1898(67)          1816.3895         1815.1433                                                                  
   568    29.5913    1935(67)          1818.9091         1817.6266                                                                  
   569    29.6413    1754(64)          1821.4314         1820.1099                                                                  
   570    29.6913    1804(65)          1823.9568         1822.5931                                                                  
   571    29.7413    1815(65)          1826.4854         1825.0763                                                                  
   572    29.7913    1849(65)          1829.0177         1827.5596                                                                  
   573    29.8413    1729(63)          1831.5540         1830.0428                                                                  
   574    29.8913    1681(62)          1834.0946         1832.5261                                                                  
   575    29.9413    1652(61)          1836.9135         1835.0094                                                                  
   576    29.9913    1710(62)          1839.4670         1837.4927                                                                  
   577    30.0413    1758(63)          1842.0264         1839.9758                                                                  
   578    30.0913    1804(64)          1844.5924         1842.4592                                                                  
   579    30.1413    1816(64)          1847.1655         1844.9424                                                                  
   580    30.1913    1869(65)          1849.7468         1847.4258                                                                  
   581    30.2413    1769(63)          1852.3370         1849.9089                                                                  
   582    30.2913    1803(63)          1854.9374         1852.3922                                                                  
   583    30.3413    1740(62)          1857.5492         1854.8755                                                                  
   584    30.3913    1785(63)          1860.1740         1857.3588                                                                  
   585    30.4413    1778(63)          1862.8132         1859.8420                                                                  
   586    30.4913    1809(63)          1865.4692         1862.3253                                                                  
   587    30.5413    1865(64)          1868.1443         1864.8085                                                                  
   588    30.5913    1911(65)          1870.8416         1867.2919                                                                  
   589    30.6413    1844(63)          1873.5640         1869.7750                                                                  
   590    30.6913    1719(61)          1876.3163         1872.2584                                                                  
   591    30.7413    1758(62)          1879.1030         1874.7416                                                                  
   592    30.7913    1794(62)          1881.9307         1877.2249                                                                  
   593    30.8413    1811(62)          1884.8066         1879.7081                                                                  
   594    30.8913    1932(64)          1887.7404         1882.1914                                                                  
   595    30.9413    1840(63)          1890.7438         1884.6747                                                                  
   596    30.9913    1714(60)          1893.8315         1887.1580                                                                  
   597    31.0413    1791(61)          1897.0228         1889.6411                                                                  
   598    31.0913    1832(62)          1900.3428         1892.1245                                                                  
   599    31.1413    1830(62)          1903.8240         1894.6077                                                                  
   600    31.1913    1840(62)          1907.5140         1897.0911                                                                  
   601    31.2413    1908(63)          1911.4945         1899.5742                                                                  
   602    31.2913    1881(63)          1915.9701         1902.0575                                                                  
   603    31.3413    1815(61)          1921.6102         1904.5408                                                                  
   604    31.3913    1869(62)          1930.7128         1907.0240                                                                  
   605    31.4413    1968(64)          1950.4697         1909.5073                                                                  
   606    31.4913    2198(67)          2000.2502         1911.9906                                                                  
   607    31.5413    2566(72)          2123.6030         1914.4738                                                                  
   608    31.5913    3504(85)          2399.6338         1916.9572                                                                  
   609    31.6413    4947(100)          2937.5005         1919.4403                                                                 
   610    31.6913    7086(120)          3832.5762         1921.9237                                                                 
   611    31.7413    9606(140)          5081.0142         1924.4069                                                                 
   612    31.7913    12065(156)          6497.5273         1926.8901                                                                
   613    31.8413    13727(167)          7715.7310         1929.3734                                                                
   614    31.8913    13871(167)          8321.0029         1931.8567                                                                
   615    31.9413    12409(158)          8075.8022         1934.3400                                                                
   616    31.9913    10293(143)          7080.4185         1936.8232                                                                
   617    32.0413    7725(124)          5702.0015         1939.3064                                                                 
   618    32.0913    5324(103)          4351.4756         1941.7897                                                                 
   619    32.1413    3619(84)          3299.3682         1944.2731                                                                  
   620    32.1913    2707(73)          2620.9297         1946.7563                                                                  
   621    32.2413    2153(65)          2251.3159         1949.2395                                                                  
   622    32.2913    2008(62)          2079.1487         1951.7228                                                                  
   623    32.3413    1843(60)          2009.9178         1954.2059                                                                  
   624    32.3913    1818(59)          1985.6864         1956.6895                                                                  
   625    32.4413    1838(59)          1978.3447         1959.1726                                                                  
   626    32.4913    1792(59)          1976.6486         1961.6558                                                                  
   627    32.5413    1820(59)          1976.7837         1964.1390                                                                  
   628    32.5913    1858(59)          1977.6057         1966.6223                                                                  
   629    32.6413    1827(59)          1978.7812         1969.1057                                                                  
   630    32.6913    1861(59)          1980.1937         1971.5889                                                                  
   631    32.7413    1879(59)          1981.7858         1974.0721                                                                  
   632    32.7913    1905(60)          1983.5194         1976.5554                                                                  
   633    32.8413    1890(59)          1985.3663         1979.0386                                                                  
   634    32.8913    1868(59)          1987.3058         1981.5220                                                                  
   635    32.9413    1872(59)          1989.3208         1984.0052                                                                  
   636    32.9913    1840(58)          1991.3983         1986.4885                                                                  
   637    33.0413    1838(58)          1993.5281         1988.9717                                                                  
   638    33.0913    1885(59)          1995.7019         1991.4550                                                                  
   639    33.1413    1878(59)          1997.9130         1993.9384                                                                  
   640    33.1913    1881(59)          2000.1559         1996.4216                                                                  
   641    33.2413    1896(59)          2002.4259         1998.9048                                                                  
   642    33.2913    1855(58)          2004.7195         2001.3879                                                                  
   643    33.3413    1826(57)          2007.0336         2003.8712                                                                  
   644    33.3913    1832(57)          2009.3657         2006.3546                                                                  
   645    33.4413    1884(58)          2011.7134         2008.8379                                                                  
   646    33.4913    1901(58)          2014.0747         2011.3210                                                                  
   647    33.5413    1982(60)          2016.4484         2013.8043                                                                  
   648    33.5913    1945(59)          2018.8328         2016.2876                                                                  
   649    33.6413    1880(58)          2021.2272         2018.7710                                                                  
   650    33.6913    1919(58)          2023.6299         2021.2542                                                                  
   651    33.7413    1958(59)          2026.0405         2023.7374                                                                  
   652    33.7913    1868(57)          2028.4583         2026.2207                                                                  
   653    33.8413    1913(58)          2030.8823         2028.7039                                                                  
   654    33.8913    1889(57)          2033.3124         2031.1873                                                                  
   655    33.9413    1852(57)          2035.7477         2033.6705                                                                  
   656    33.9913    1868(57)          2038.1877         2036.1538                                                                  
   657    34.0413    1853(57)          2040.6323         2038.6370                                                                  
   658    34.0913    1880(57)          2043.0809         2041.1201                                                                  
   659    34.1413    1896(57)          2045.5337         2043.6036                                                                  
   660    34.1913    1880(57)          2047.9897         2046.0868                                                                  
   661    34.2413    1836(56)          2050.4492         2048.5701                                                                  
   662    34.2913    1896(57)          2052.9116         2051.0532                                                                  
   663    34.3413    1956(58)          2055.3772         2053.5366                                                                  
   664    34.3913    1952(57)          2057.8457         2056.0200                                                                  
   665    34.4413    1939(57)          2060.3164         2058.5032                                                                  
   666    34.4913    1973(58)          2062.7898         2060.9863                                                                  
   667    34.5413    1936(57)          2065.2656         2063.4697                                                                  
   668    34.5913    1905(56)          2067.7437         2065.9529                                                                  
   669    34.6413    1917(56)          2070.2239         2068.4363                                                                  
   670    34.6913    1855(55)          2072.7061         2070.9194                                                                  
   671    34.7413    1890(56)          2075.1904         2073.4026                                                                  
   672    34.7913    1944(57)          2077.6770         2075.8860                                                                  
   673    34.8413    1914(56)          2078.6135         2076.8174                                                                  
   674    34.8913    1906(56)          2077.8704         2076.0674                                                                  
   675    34.9413    1945(56)          2077.1294         2075.3174                                                                  
   676    34.9913    1922(56)          2076.3901         2074.5674                                                                  
   677    35.0413    1915(56)          2075.6528         2073.8174                                                                  
   678    35.0913    1856(55)          2074.9175         2073.0676                                                                  
   679    35.1413    1964(56)          2074.1838         2072.3176                                                                  
   680    35.1913    1921(55)          2073.4521         2071.5676                                                                  
   681    35.2413    1884(55)          2072.7222         2070.8176                                                                  
   682    35.2913    1857(54)          2071.9944         2070.0676                                                                  
   683    35.3413    1966(56)          2071.2683         2069.3176                                                                  
   684    35.3913    1925(55)          2070.5442         2068.5676                                                                  
   685    35.4413    1916(55)          2069.8225         2067.8179                                                                  
   686    35.4913    1965(56)          2069.1025         2067.0679                                                                  
   687    35.5413    1891(54)          2068.3845         2066.3179                                                                  
   688    35.5913    1853(54)          2067.6689         2065.5679                                                                  
   689    35.6413    1902(54)          2066.9553         2064.8179                                                                  
   690    35.6913    1942(55)          2066.2446         2064.0681                                                                  
   691    35.7413    2034(56)          2065.5359         2063.3181                                                                  
   692    35.7913    1993(55)          2064.8296         2062.5681                                                                  
   693    35.8413    1944(55)          2064.1260         2061.8181                                                                  
   694    35.8913    1942(55)          2063.4253         2061.0681                                                                  
   695    35.9413    1963(55)          2062.7275         2060.3184                                                                  
   696    35.9913    1991(55)          2062.0325         2059.5684                                                                  
   697    36.0413    2042(56)          2061.3408         2058.8184                                                                  
   698    36.0913    2034(55)          2060.6521         2058.0684                                                                  
   699    36.1413    2040(55)          2059.9670         2057.3184                                                                  
   700    36.1913    2053(56)          2059.2859         2056.5684                                                                  
   701    36.2413    2008(55)          2058.6086         2055.8186                                                                  
   702    36.2913    1967(54)          2058.6667         2055.0686                                                                  
   703    36.3413    2116(56)          2058.0059         2054.3186                                                                  
   704    36.3913    2095(56)          2057.3494         2053.5686                                                                  
   705    36.4413    2272(58)          2056.6982         2052.8186                                                                  
   706    36.4913    2474(60)          2056.0525         2052.0688                                                                  
   707    36.5413    2420(60)          2055.4126         2051.3188                                                                  
   708    36.5913    2429(60)          2054.7786         2050.5688                                                                  
   709    36.6413    2506(61)          2054.1514         2049.8188                                                                  
   710    36.6913    2369(59)          2053.5312         2049.0688                                                                  
   711    36.7413    2335(58)          2052.9187         2048.3188                                                                  
   712    36.7913    2168(56)          2052.3142         2047.5690                                                                  
   713    36.8413    2062(55)          2051.7188         2046.8191                                                                  
   714    36.8913    2006(54)          2051.1328         2046.0691                                                                  
   715    36.9413    2022(54)          2050.5569         2045.3191                                                                  
   716    36.9913    1954(53)          2049.9924         2044.5692                                                                  
   717    37.0413    1947(53)          2049.4397         2043.8192                                                                  
   718    37.0913    1970(53)          2048.9004         2043.0693                                                                  
   719    37.1413    1978(53)          2048.3752         2042.3193                                                                  
   720    37.1913    1951(52)          2047.8656         2041.5693                                                                  
   721    37.2413    1904(52)          2047.3732         2040.8195                                                                  
   722    37.2913    1941(52)          2046.8994         2040.0695                                                                  
   723    37.3413    2033(53)          2046.4464         2039.3196                                                                  
   724    37.3913    2043(53)          2046.0159         2038.5696                                                                  
   725    37.4413    2154(55)          2045.6104         2037.8196                                                                  
   726    37.4913    2184(55)          2045.2327         2037.0696                                                                  
   727    37.5413    2214(55)          2044.8857         2036.3197                                                                  
   728    37.5913    2270(56)          2044.5731         2035.5697                                                                  
   729    37.6413    2265(56)          2044.2987         2034.8197                                                                  
   730    37.6913    2250(55)          2044.0674         2034.0698                                                                  
   731    37.7413    2250(55)          2043.8842         2033.3198                                                                  
   732    37.7913    2310(56)          2043.7556         2032.5699                                                                  
   733    37.8413    2205(55)          2043.6886         2031.8199                                                                  
   734    37.8913    2141(54)          2043.6918         2031.0699                                                                  
   735    37.9413    2133(54)          2043.7753         2030.3201                                                                  
   736    37.9913    2073(53)          2043.9506         2029.5701                                                                  
   737    38.0413    2065(53)          2044.2322         2028.8202                                                                  
   738    38.0913    2316(56)          2044.6366         2028.0702                                                                  
   739    38.1413    2452(57)          2045.1844         2027.3202                                                                  
   740    38.1913    2687(60)          2045.9003         2026.5702                                                                  
   741    38.2413    3084(64)          2046.8146         2025.8203                                                                  
   742    38.2913    3724(70)          2047.9646         2025.0703                                                                  
   743    38.3413    4497(77)          2049.3972         2024.3204                                                                  
   744    38.3913    5221(83)          2051.1709         2023.5704                                                                  
   745    38.4413    5720(87)          2053.3596         2022.8204                                                                  
   746    38.4913    5871(88)          2056.0598         2022.0706                                                                  
   747    38.5413    5820(87)          2059.3955         2021.3206                                                                  
   748    38.5913    5380(84)          2063.5339         2020.5707                                                                  
   749    38.6413    4740(78)          2068.7129         2019.8207                                                                  
   750    38.6913    4099(73)          2075.3401         2019.0707                                                                  
   751    38.7413    3413(66)          2084.4072         2018.3208                                                                  
   752    38.7913    3052(62)          2099.0940         2017.5708                                                                  
   753    38.8413    2908(61)          2130.1541         2016.8208                                                                  
   754    38.8913    3084(63)          2210.7493         2016.0708                                                                  
   755    38.9413    4066(72)          2428.4795         2015.3209                                                                  
   756    38.9913    6461(90)          2975.0745         2014.5709                                                                  
   757    39.0413    10213(114)          4185.1079         2013.8210                                                                
   758    39.0913    16483(144)          6490.2295         2013.0710                                                                
   759    39.1413    24590(176)         10206.7881         2012.3210                                                                
   760    39.1913    33194(204)         15176.9014         2011.5712                                                                
   761    39.2413    40858(226)         20490.7891         2010.8212                                                                
   762    39.2913    44244(235)         24605.4102         2010.0713                                                                
   763    39.3413    43326(232)         25995.7305         2009.3213                                                                
   764    39.3913    37266(215)         24080.0078         2008.5713                                                                
   765    39.4413    29357(191)         19650.0742         2007.8214                                                                
   766    39.4913    20504(159)         14296.8311         2007.0714                                                                
   767    39.5413    12945(126)          9490.4824         2006.3215                                                                
   768    39.5913    7700(97)          6011.4082         2005.5715                                                                  
   769    39.6413    4563(74)          3913.5771         2004.8215                                                                  
   770    39.6913    3074(61)          2839.9336         2004.0715                                                                  
   771    39.7413    2346(53)          2365.0671         2003.3217                                                                  
   772    39.7913    2075(50)          2178.1904         2002.5717                                                                  
   773    39.8413    2098(50)          2108.3291         2001.8218                                                                  
   774    39.8913    1988(49)          2079.9080         2001.0718                                                                  
   775    39.9413    2024(49)          2065.1204         2000.3218                                                                  
   776    39.9913    1972(48)          2055.1294         1999.5719                                                                  
   777    40.0413    2044(49)          2047.3341         1998.8219                                                                  
   778    40.0913    2001(48)          2040.8990         1998.0720                                                                  
   779    40.1413    1925(47)          2035.4579         1997.3220                                                                  
   780    40.1913    1885(47)          2030.7889         1996.5720                                                                  
   781    40.2413    1930(47)          2026.7336         1995.8220                                                                  
   782    40.2913    1975(48)          2023.1727         1995.0721                                                                  
   783    40.3413    1962(48)          2020.0144         1994.3221                                                                  
   784    40.3913    1979(48)          2017.1870         1993.5721                                                                  
   785    40.4413    1934(47)          2014.6346         1992.8223                                                                  
   786    40.4913    1904(47)          2012.3123         1992.0723                                                                  
   787    40.5413    1851(46)          2010.1838         1991.3224                                                                  
   788    40.5913    1991(48)          2008.2201         1990.5724                                                                  
   789    40.6413    1937(47)          2006.3970         1989.8224                                                                  
   790    40.6913    1918(46)          2004.6952         1989.0725                                                                  
   791    40.7413    1869(46)          2003.0980         1988.3225                                                                  
   792    40.7913    1887(46)          2001.5922         1987.5726                                                                  
   793    40.8413    1891(46)          2000.1659         1986.8226                                                                  
   794    40.8913    1917(46)          1998.8097         1986.0726                                                                  
   795    40.9413    1905(46)          1997.5155         1985.3228                                                                  
   796    40.9913    1876(46)          1996.2762         1984.5728                                                                  
   797    41.0413    1783(44)          1995.0858         1983.8228                                                                  
   798    41.0913    1882(45)          1993.9395         1983.0729                                                                  
   799    41.1413    1908(46)          1992.8323         1982.3229                                                                  
   800    41.1913    1880(45)          1991.7607         1981.5729                                                                  
   801    41.2413    1970(46)          1990.7216         1980.8230                                                                  
   802    41.2913    1869(45)          1989.7117         1980.0730                                                                  
   803    41.3413    2016(47)          1988.7286         1979.3231                                                                  
   804    41.3913    1920(45)          1987.7701         1978.5731                                                                  
   805    41.4413    1920(45)          1986.8345         1977.8231                                                                  
   806    41.4913    1914(45)          1985.8630         1977.0732                                                                  
   807    41.5413    1959(46)          1984.9685         1976.3232                                                                  
   808    41.5913    1846(44)          1984.0920         1975.5732                                                                  
   809    41.6413    1871(45)          1983.2328         1974.8232                                                                  
   810    41.6913    1927(45)          1982.3899         1974.0734                                                                  
   811    41.7413    1995(46)          1981.5620         1973.3234                                                                  
   812    41.7913    2014(46)          1980.7488         1972.5735                                                                  
   813    41.8413    2003(46)          1979.9492         1971.8235                                                                  
   814    41.8913    1912(45)          1979.1631         1971.0735                                                                  
   815    41.9413    1933(45)          1978.3898         1970.3236                                                                  
   816    41.9913    1909(44)          1977.6289         1969.5736                                                                  
   817    42.0413    1918(45)          1976.8804         1968.8237                                                                  
   818    42.0913    1929(45)          1976.1436         1968.0737                                                                  
   819    42.1413    1938(45)          1975.4185         1967.3237                                                                  
   820    42.1913    1900(44)          1975.0439         1966.5739                                                                  
   821    42.2413    1916(44)          1974.3457         1965.8239                                                                  
   822    42.2913    1913(44)          1973.6591         1965.0740                                                                  
   823    42.3413    1924(44)          1972.9840         1964.3240                                                                  
   824    42.3913    1923(44)          1972.3208         1963.5740                                                                  
   825    42.4413    1860(43)          1971.6694         1962.8240                                                                  
   826    42.4913    1885(44)          1971.0304         1962.0741                                                                  
   827    42.5413    1861(43)          1970.4036         1961.3241                                                                  
   828    42.5913    1938(44)          1969.7897         1960.5742                                                                  
   829    42.6413    1897(43)          1969.1888         1959.8242                                                                  
   830    42.6913    1830(43)          1968.6016         1959.0742                                                                  
   831    42.7413    1964(44)          1968.0286         1958.3243                                                                  
   832    42.7913    1947(44)          1967.4702         1957.5743                                                                  
   833    42.8413    1961(44)          1966.9275         1956.8245                                                                  
   834    42.8913    1944(44)          1966.4008         1956.0745                                                                  
   835    42.9413    1936(44)          1965.8911         1955.3245                                                                  
   836    42.9913    1934(43)          1965.3997         1954.5746                                                                  
   837    43.0413    1951(44)          1964.9271         1953.8246                                                                  
   838    43.0913    1953(44)          1964.4749         1953.0746                                                                  
   839    43.1413    1962(44)          1964.0441         1952.3246                                                                  
   840    43.1913    1997(44)          1963.6365         1951.5747                                                                  
   841    43.2413    1920(43)          1963.2534         1950.8247                                                                  
   842    43.2913    1911(43)          1962.8970         1950.0748                                                                  
   843    43.3413    1966(44)          1962.5687         1949.3248                                                                  
   844    43.3913    1947(44)          1962.2712         1948.5748                                                                  
   845    43.4413    1906(43)          1962.0070         1947.8250                                                                  
   846    43.4913    1931(43)          1961.7786         1947.0750                                                                  
   847    43.5413    2005(44)          1961.5891         1946.3251                                                                  
   848    43.5913    1985(44)          1961.4421         1945.5751                                                                  
   849    43.6413    1893(43)          1961.3414         1944.8251                                                                  
   850    43.6913    1939(44)          1961.2916         1944.0752                                                                  
   851    43.7413    1928(43)          1961.2974         1943.3252                                                                  
   852    43.7913    2079(45)          1961.3641         1942.5752                                                                  
   853    43.8413    2040(45)          1961.4987         1941.8253                                                                  
   854    43.8913    1988(44)          1961.7078         1941.0753                                                                  
   855    43.9413    1952(44)          1961.9995         1940.3253                                                                  
   856    43.9913    1871(43)          1962.3837         1939.5754                                                                  
   857    44.0413    1990(44)          1962.8705         1938.8254                                                                  
   858    44.0913    1993(44)          1963.4727         1938.0756                                                                  
   859    44.1413    2031(45)          1964.2042         1937.3256                                                                  
   860    44.1913    2015(44)          1965.0817         1936.5756                                                                  
   861    44.2413    2026(45)          1966.1246         1935.8257                                                                  
   862    44.2913    2038(45)          1967.3553         1935.0757                                                                  
   863    44.3413    2028(45)          1968.8008         1934.3258                                                                  
   864    44.3913    2129(46)          1970.4924         1933.5758                                                                  
   865    44.4413    2128(46)          1972.4675         1932.8258                                                                  
   866    44.4913    2126(46)          1974.7716         1932.0759                                                                  
   867    44.5413    2060(45)          1977.4584         1931.3259                                                                  
   868    44.5913    2076(45)          1980.5941         1930.5759                                                                  
   869    44.6413    2080(45)          1984.2596         1929.8259                                                                  
   870    44.6913    2068(45)          1988.5540         1929.0760                                                                  
   871    44.7413    2110(45)          1993.6008         1928.3260                                                                  
   872    44.7913    2070(45)          1999.5562         1927.5762                                                                  
   873    44.8413    2067(45)          2006.6172         1926.8262                                                                  
   874    44.8913    2066(45)          2015.0382         1926.0762                                                                  
   875    44.9413    2112(45)          2025.1482         1925.3263                                                                  
   876    44.9913    2074(45)          2037.3875         1924.5763                                                                  
   877    45.0413    2112(45)          2052.3789         1923.8264                                                                  
   878    45.0913    2137(46)          2071.1667         1923.0764                                                                  
   879    45.1413    2229(47)          2096.1719         1922.3264                                                                  
   880    45.1913    2393(48)          2134.8174         1921.5764                                                                  
   881    45.2413    2685(51)          2211.5298         1920.8265                                                                  
   882    45.2913    3669(60)          2400.3774         1920.0765                                                                  
   883    45.3413    6070(77)          2895.0930         1919.3267                                                                  
   884    45.3913    11018(104)          4117.4287         1918.5767                                                                
   885    45.4413    19847(140)          6802.3457         1917.8267                                                                
   886    45.4913    34090(184)         11904.4678         1917.0768                                                                
   887    45.5413    52989(230)         20145.3008         1916.3268                                                                
   888    45.5913    73613(271)         31239.0020         1915.5769                                                                
   889    45.6413    90914(301)         43259.6602         1914.8269                                                                
   890    45.6913    100604(317)         52830.8359         1914.0769                                                               
   891    45.7413    98761(314)         56479.5625         1913.3270                                                                
   892    45.7913    85789(292)         52691.7852         1912.5770                                                                
   893    45.8413    66639(258)         43036.4766         1911.8271                                                                
   894    45.8913    45839(214)         31003.5430         1911.0771                                                                
   895    45.9413    28103(167)         19950.7070         1910.3271                                                                
   896    45.9913    15639(125)         11770.5830         1909.5771                                                                
   897    46.0413    8343(91)          6722.1050         1908.8273                                                                  
   898    46.0913    4525(67)          4072.5688         1908.0773                                                                  
   899    46.1413    2997(54)          2868.6299         1907.3273                                                                  
   900    46.1913    2337(48)          2381.3662         1906.5774                                                                  
   901    46.2413    2112(45)          2194.4768         1905.8274                                                                  
   902    46.2913    2054(45)          2117.4663         1905.0775                                                                  
   903    46.3413    2070(45)          2077.7393         1904.3275                                                                  
   904    46.3913    2051(45)          2051.4099         1903.5775                                                                  
   905    46.4413    2025(45)          2031.2244         1902.8276                                                                  
   906    46.4913    2077(45)          2014.8075         1902.0776                                                                  
   907    46.5413    2042(45)          2001.1283         1901.3276                                                                  
   908    46.5913    2004(44)          1989.5690         1900.5778                                                                  
   909    46.6413    1983(44)          1979.6915         1899.8278                                                                  
   910    46.6913    1954(44)          1971.1689         1899.0779                                                                  
   911    46.7413    2001(44)          1963.7480         1898.3279                                                                  
   912    46.7913    2012(44)          1957.2324         1897.5779                                                                  
   913    46.8413    2007(44)          1951.4674         1896.8280                                                                  
   914    46.8913    2001(44)          1946.3292         1896.0780                                                                  
   915    46.9413    1976(44)          1941.7196         1895.3280                                                                  
   916    46.9913    1972(44)          1937.5579         1894.5781                                                                  
   917    47.0413    1997(44)          1933.7784         1893.8281                                                                  
   918    47.0913    1936(44)          1930.3273         1893.0782                                                                  
   919    47.1413    1953(44)          1927.1593         1892.3282                                                                  
   920    47.1913    1881(43)          1924.2375         1891.5782                                                                  
   921    47.2413    1875(43)          1921.5305         1890.8284                                                                  
   922    47.2913    1947(44)          1919.0115         1890.0784                                                                  
   923    47.3413    1973(44)          1916.6581         1889.3284                                                                  
   924    47.3913    1920(43)          1914.4509         1888.5784                                                                  
   925    47.4413    1910(43)          1912.3739         1887.8285                                                                  
   926    47.4913    1946(44)          1910.4125         1887.0785                                                                  
   927    47.5413    1953(44)          1908.5547         1886.3286                                                                  
   928    47.5913    1946(44)          1906.8600         1885.5786                                                                  
   929    47.6413    1943(44)          1905.1793         1884.8286                                                                  
   930    47.6913    1904(43)          1903.5743         1884.0787                                                                  
   931    47.7413    1921(43)          1902.0377         1883.3287                                                                  
   932    47.7913    1900(43)          1900.5635         1882.5789                                                                  
   933    47.8413    1926(43)          1899.1459         1881.8289                                                                  
   934    47.8913    1831(42)          1897.7803         1881.0789                                                                  
   935    47.9413    1964(44)          1896.4625         1880.3290                                                                  
   936    47.9913    1938(44)          1895.1885         1879.5790                                                                  
   937    48.0413    1897(43)          1893.9552         1878.8291                                                                  
   938    48.0913    1918(43)          1892.7593         1878.0791                                                                  
   939    48.1413    1866(43)          1891.5984         1877.3291                                                                  
   940    48.1913    1904(43)          1890.4701         1876.5791                                                                  
   941    48.2413    1920(43)          1889.3724         1875.8292                                                                  
   942    48.2913    1898(43)          1888.3032         1875.0792                                                                  
   943    48.3413    1912(43)          1887.2612         1874.3293                                                                  
   944    48.3913    1899(43)          1886.2448         1873.5793                                                                  
   945    48.4413    1988(44)          1885.2526         1872.8293                                                                  
   946    48.4913    1911(43)          1884.2838         1872.0795                                                                  
   947    48.5413    1888(43)          1883.3372         1871.3295                                                                  
   948    48.5913    1905(43)          1882.4122         1870.5796                                                                  
   949    48.6413    1925(43)          1881.5078         1869.8296                                                                  
   950    48.6913    1835(42)          1880.6238         1869.0796                                                                  
   951    48.7413    1919(43)          1879.7595         1868.3296                                                                  
   952    48.7913    1906(43)          1878.6447         1867.5797                                                                  
   953    48.8413    1845(42)          1877.8220         1866.8297                                                                  
   954    48.8913    1820(42)          1877.0186         1866.0797                                                                  
   955    48.9413    1888(43)          1876.2343         1865.3298                                                                  
   956    48.9913    1899(43)          1875.4692         1864.5798                                                                  
   957    49.0413    1934(43)          1874.7240         1863.8300                                                                  
   958    49.0913    1839(42)          1873.9985         1863.0800                                                                  
   959    49.1413    1832(42)          1873.2936         1862.3300                                                                  
   960    49.1913    1896(43)          1872.6097         1861.5801                                                                  
   961    49.2413    1882(43)          1872.9296         1861.8118                                                                  
   962    49.2913    1886(43)          1874.1785         1862.9496                                                                  
   963    49.3413    1864(43)          1875.4515         1864.0875                                                                  
   964    49.3913    1890(43)          1876.7500         1865.2253                                                                  
   965    49.4413    1865(43)          1878.0756         1866.3633                                                                  
   966    49.4913    1882(43)          1879.4301         1867.5011                                                                  
   967    49.5413    1829(42)          1880.8154         1868.6389                                                                  
   968    49.5913    1917(43)          1882.2345         1869.7767                                                                  
   969    49.6413    1841(42)          1883.6899         1870.9147                                                                  
   970    49.6913    1935(43)          1885.1851         1872.0525                                                                  
   971    49.7413    1980(44)          1886.7235         1873.1903                                                                  
   972    49.7913    1922(43)          1888.3101         1874.3282                                                                  
   973    49.8413    1902(43)          1889.9495         1875.4661                                                                  
   974    49.8913    1831(42)          1891.6479         1876.6040                                                                  
   975    49.9413    1895(43)          1893.4120         1877.7418                                                                  
   976    49.9913    1869(43)          1895.2500         1878.8796                                                                  
   977    50.0413    1881(43)          1897.1713         1880.0175                                                                  
   978    50.0913    1947(44)          1899.1871         1881.1553                                                                  
   979    50.1413    1979(44)          1901.3109         1882.2932                                                                  
   980    50.1913    1917(43)          1903.5579         1883.4310                                                                  
   981    50.2413    1898(43)          1905.9473         1884.5688                                                                  
   982    50.2913    1914(43)          1908.5017         1885.7068                                                                  
   983    50.3413    1880(43)          1911.2487         1886.8446                                                                  
   984    50.3913    1939(44)          1914.2219         1887.9825                                                                  
   985    50.4413    1924(43)          1917.4624         1889.1204                                                                  
   986    50.4913    1942(44)          1921.0217         1890.2582                                                                  
   987    50.5413    2032(45)          1924.9641         1891.3960                                                                  
   988    50.5913    2053(45)          1929.3708         1892.5338                                                                  
   989    50.6413    1989(44)          1934.3466         1893.6718                                                                  
   990    50.6913    1936(44)          1940.0250         1894.8096                                                                  
   991    50.7413    1972(44)          1946.5841         1895.9475                                                                  
   992    50.7913    1913(43)          1954.2638         1897.0853                                                                  
   993    50.8413    1936(44)          1963.4205         1898.2231                                                                  
   994    50.8913    2012(44)          1974.7156         1899.3611                                                                  
   995    50.9413    2009(44)          1989.8633         1900.4989                                                                  
   996    50.9913    2104(45)          2014.3634         1901.6367                                                                  
   997    51.0413    2404(49)          2065.8547         1902.7745                                                                  
   998    51.0913    3076(55)          2194.7327         1903.9124                                                                  
   999    51.1413    4678(68)          2522.7046         1905.0503                                                                  
  1000    51.1913    7880(88)          3288.9985         1906.1882                                                                  
  1001    51.2413    13040(114)          4857.2720         1907.3260                                                                
  1002    51.2913    20661(143)          7601.7783         1908.4639                                                                
  1003    51.3413    29830(172)         11630.6055         1909.6017                                                                
  1004    51.3913    37632(193)         16458.5898         1910.7396                                                                
  1005    51.4413    42517(206)         20903.7168         1911.8774                                                                
  1006    51.4913    43041(207)         23448.7930         1913.0153                                                                
  1007    51.5413    38215(195)         23043.3730         1914.1531                                                                
  1008    51.5913    30432(174)         19864.9805         1915.2910                                                                
  1009    51.6413    21646(147)         15177.0752         1916.4288                                                                
  1010    51.6913    14035(118)         10472.8945         1917.5668                                                                
  1011    51.7413    8299(91)          6764.8369         1918.7046                                                                  
  1012    51.7913    4807(69)          4358.2803         1919.8424                                                                  
  1013    51.8413    3106(55)          3041.8071         1920.9802                                                                  
  1014    51.8913    2369(48)          2423.4121         1922.1182                                                                  
  1015    51.9413    2077(45)          2167.5110         1923.2560                                                                  
  1016    51.9913    2007(44)          2069.1428         1924.3938                                                                  
  1017    52.0413    1992(44)          2029.9480         1925.5317                                                                  
  1018    52.0913    1978(44)          2011.0854         1926.6696                                                                  
  1019    52.1413    1981(44)          1999.4532         1927.8075                                                                  
  1020    52.1913    1919(43)          1991.0291         1928.9453                                                                  
  1021    52.2413    2040(45)          1984.5149         1930.0831                                                                  
  1022    52.2913    2015(44)          1979.3663         1931.2209                                                                  
  1023    52.3413    2013(44)          1975.2667         1932.3588                                                                  
  1024    52.3913    2028(45)          1971.9949         1933.4967                                                                  
  1025    52.4413    2006(44)          1969.3866         1934.6345                                                                  
  1026    52.4913    2001(44)          1967.3159         1935.7725                                                                  
  1027    52.5413    2036(45)          1965.6851         1936.9103                                                                  
  1028    52.5913    1977(44)          1964.4176         1938.0481                                                                  
  1029    52.6413    2007(44)          1963.4531         1939.1860                                                                  
  1030    52.6913    2024(44)          1962.7430         1940.3239                                                                  
  1031    52.7413    2013(44)          1962.2479         1941.4617                                                                  
  1032    52.7913    1988(44)          1961.9362         1942.5995                                                                  
  1033    52.8413    1932(43)          1961.7811         1943.7373                                                                  
  1034    52.8913    1933(43)          1961.7615         1944.8752                                                                  
  1035    52.9413    1925(43)          1961.8589         1946.0131                                                                  
  1036    52.9913    1972(44)          1962.0583         1947.1510                                                                  
  1037    53.0413    1898(43)          1962.3469         1948.2888                                                                  
  1038    53.0913    2025(45)          1962.7140         1949.4266                                                                  
  1039    53.1413    2021(44)          1963.1503         1950.5646                                                                  
  1040    53.1913    1953(44)          1963.6478         1951.7024                                                                  
  1041    53.2413    2006(44)          1964.2000         1952.8402                                                                  
  1042    53.2913    1983(44)          1964.8008         1953.9780                                                                  
  1043    53.3413    1976(44)          1965.4454         1955.1160                                                                  
  1044    53.3913    1952(44)          1966.1290         1956.2538                                                                  
  1045    53.4413    1905(43)          1966.8481         1957.3916                                                                  
  1046    53.4913    1955(44)          1967.5994         1958.5295                                                                  
  1047    53.5413    1938(44)          1968.3795         1959.6674                                                                  
  1048    53.5913    1860(43)          1969.1860         1960.8052                                                                  
  1049    53.6413    1954(44)          1970.0168         1961.9431                                                                  
  1050    53.6913    2022(44)          1970.8698         1963.0809                                                                  
  1051    53.7413    1969(44)          1971.7429         1964.2188                                                                  
  1052    53.7913    1912(43)          1972.6349         1965.3566                                                                  
  1053    53.8413    2012(44)          1973.5442         1966.4945                                                                  
  1054    53.8913    2010(44)          1974.4695         1967.6323                                                                  
  1055    53.9413    1988(44)          1975.4098         1968.7703                                                                  
  1056    53.9913    1972(44)          1976.3640         1969.9081                                                                  
  1057    54.0413    1937(44)          1977.3312         1971.0459                                                                  
  1058    54.0913    1955(44)          1978.3107         1972.1837                                                                  
  1059    54.1413    1952(44)          1979.3019         1973.3217                                                                  
  1060    54.1913    1922(43)          1980.3038         1974.4595                                                                  
  1061    54.2413    1897(43)          1981.3163         1975.5973                                                                  
  1062    54.2913    1961(44)          1982.3387         1976.7351                                                                  
  1063    54.3413    2011(44)          1983.3708         1977.8730                                                                  
  1064    54.3913    1977(44)          1984.4122         1979.0110                                                                  
  1065    54.4413    1988(44)          1985.4624         1980.1488                                                                  
  1066    54.4913    1995(44)          1986.5214         1981.2866                                                                  
  1067    54.5413    2022(44)          1987.5889         1982.4244                                                                  
  1068    54.5913    1954(44)          1988.6649         1983.5623                                                                  
  1069    54.6413    1964(44)          1989.7495         1984.7002                                                                  
  1070    54.6913    1991(44)          1990.8425         1985.8380                                                                  
  1071    54.7413    1955(44)          1991.9440         1986.9758                                                                  
  1072    54.7913    1947(44)          1993.0543         1988.1138                                                                  
  1073    54.8413    2030(45)          1994.1733         1989.2516                                                                  
  1074    54.8913    2062(45)          1995.3016         1990.3895                                                                  
  1075    54.9413    1983(44)          1996.4395         1991.5273                                                                  
  1076    54.9913    2078(45)          1997.5872         1992.6652                                                                  
  1077    55.0413    1976(44)          1998.7455         1993.8030                                                                  
  1078    55.0913    1937(44)          1999.9150         1994.9408                                                                  
  1079    55.1413    1985(44)          2001.0968         1996.0787                                                                  
  1080    55.1913    2078(45)          2002.2914         1997.2166                                                                  
  1081    55.2413    2072(45)          2002.7766         1998.3545                                                                  
  1082    55.2913    2005(44)          2004.0085         1999.4923                                                                  
  1083    55.3413    2029(45)          2005.2574         2000.6301                                                                  
  1084    55.3913    1996(44)          2006.5256         2001.7681                                                                  
  1085    55.4413    1967(44)          2007.8148         2002.9059                                                                  
  1086    55.4913    1980(44)          2009.1282         2004.0437                                                                  
  1087    55.5413    1998(44)          2010.4688         2005.1815                                                                  
  1088    55.5913    1995(44)          2011.8407         2006.3193                                                                  
  1089    55.6413    2000(44)          2013.2489         2007.4573                                                                  
  1090    55.6913    2054(45)          2014.6991         2008.5952                                                                  
  1091    55.7413    1973(44)          2016.1982         2009.7330                                                                  
  1092    55.7913    1959(44)          2017.7555         2010.8708                                                                  
  1093    55.8413    1923(43)          2019.3816         2012.0087                                                                  
  1094    55.8913    2032(45)          2021.0909         2013.1466                                                                  
  1095    55.9413    2123(46)          2022.9005         2014.2844                                                                  
  1096    55.9913    2083(45)          2024.8333         2015.4222                                                                  
  1097    56.0413    2074(45)          2026.9185         2016.5601                                                                  
  1098    56.0913    2050(45)          2029.1951         2017.6980                                                                  
  1099    56.1413    2004(44)          2031.7161         2018.8359                                                                  
  1100    56.1913    2021(44)          2034.5593         2019.9738                                                                  
  1101    56.2413    2108(45)          2037.8707         2021.1116                                                                  
  1102    56.2913    2201(46)          2042.0277         2022.2494                                                                  
  1103    56.3413    2174(46)          2048.2334         2023.3872                                                                  
  1104    56.3913    2261(47)          2060.3169         2024.5251                                                                  
  1105    56.4413    2472(49)          2089.0833         2025.6630                                                                  
  1106    56.4913    3019(54)          2160.1582         2026.8008                                                                  
  1107    56.5413    3971(63)          2322.5969         2027.9387                                                                  
  1108    56.5913    5239(72)          2647.7737         2029.0765                                                                  
  1109    56.6413    7218(84)          3202.5618         2030.2145                                                                  
  1110    56.6913    9137(95)          3991.6016         2031.3523                                                                  
  1111    56.7413    10593(102)          4897.7148         2032.4901                                                                
  1112    56.7913    11300(106)          5675.7373         2033.6279                                                                
  1113    56.8413    10740(103)          6039.9858         2034.7657                                                                
  1114    56.8913    9396(96)          5832.0195         2035.9037                                                                  
  1115    56.9413    7726(87)          5145.1748         2037.0415                                                                  
  1116    56.9913    5980(77)          4248.2358         2038.1794                                                                  
  1117    57.0413    4144(64)          3410.7671         2039.3173                                                                  
  1118    57.0913    3135(55)          2788.8196         2040.4551                                                                  
  1119    57.1413    2549(50)          2406.9451         2041.5930                                                                  
  1120    57.1913    2265(47)          2208.9888         2042.7308                                                                  
  1121    57.2413    2090(45)          2120.6660         2043.8687                                                                  
  1122    57.2913    2002(44)          2085.7534         2045.0065                                                                  
  1123    57.3413    2055(45)          2072.7908         2046.1443                                                                  
  1124    57.3913    2042(45)          2067.7520         2047.2822                                                                  
  1125    57.4413    2061(45)          2065.4414         2048.4202                                                                  
  1126    57.4913    1982(44)          2065.2246         2049.5579                                                                  
  1127    57.5413    2031(45)          2064.5149         2050.6958                                                                  
  1128    57.5913    2138(46)          2064.1577         2051.8335                                                                  
  1129    57.6413    2114(45)          2064.0627         2052.9714                                                                  
  1130    57.6913    2062(45)          2064.1719         2054.1094                                                                  
  1131    57.7413    2015(44)          2064.4424         2055.2473                                                                  
  1132    57.7913    1990(44)          2064.8428         2056.3850                                                                  
  1133    57.8413    2055(45)          2065.3491         2057.5229                                                                  
  1134    57.8913    2047(45)          2065.9419         2058.6609                                                                  
  1135    57.9413    2055(45)          2066.6064         2059.7986                                                                  
  1136    57.9913    2062(45)          2067.3311         2060.9365                                                                  
  1137    58.0413    2070(45)          2068.1060         2062.0742                                                                  
  1138    58.0913    2050(45)          2068.9238         2063.2122                                                                  
  1139    58.1413    2018(44)          2069.7783         2064.3501                                                                  
  1140    58.1913    2097(45)          2070.6643         2065.4880                                                                  
  1141    58.2413    2084(45)          2071.5771         2066.6257                                                                  
  1142    58.2913    2032(45)          2072.5137         2067.7637                                                                  
  1143    58.3413    2081(45)          2073.4707         2068.9014                                                                  
  1144    58.3913    2076(45)          2074.4458         2070.0393                                                                  
  1145    58.4413    2081(45)          2075.4370         2071.1772                                                                  
  1146    58.4913    2007(44)          2076.4421         2072.3149                                                                  
  1147    58.5413    2013(44)          2077.4600         2073.4529                                                                  
  1148    58.5913    2119(46)          2078.4888         2074.5908                                                                  
  1149    58.6413    2114(45)          2079.5276         2075.7285                                                                  
  1150    58.6913    2072(45)          2080.5757         2076.8665                                                                  
  1151    58.7413    2091(45)          2081.6321         2078.0044                                                                  
  1152    58.7913    2040(45)          2082.6953         2079.1421                                                                  
  1153    58.8413    2033(45)          2083.7656         2080.2800                                                                  
  1154    58.8913    2136(46)          2084.8420         2081.4180                                                                  
  1155    58.9413    2138(46)          2085.9241         2082.5557                                                                  
  1156    58.9913    2133(46)          2087.0112         2083.6936                                                                  
  1157    59.0413    2123(46)          2088.1030         2084.8315                                                                  
  1158    59.0913    2101(45)          2089.1992         2085.9692                                                                  
  1159    59.1413    2092(45)          2090.2996         2087.1072                                                                  
  1160    59.1913    2185(46)          2091.4036         2088.2451                                                                  
  1161    59.2413    2091(45)          2092.5110         2089.3828                                                                  
  1162    59.2913    2104(45)          2093.6218         2090.5208                                                                  
  1163    59.3413    2109(45)          2094.7356         2091.6584                                                                  
  1164    59.3913    2141(46)          2095.8525         2092.7964                                                                  
  1165    59.4413    2114(45)          2096.9719         2093.9343                                                                  
  1166    59.4913    2079(45)          2098.0942         2095.0723                                                                  
  1167    59.5413    2044(45)          2099.2185         2096.2100                                                                  
  1168    59.5913    2137(46)          2100.3455         2097.3479                                                                  
  1169    59.6413    2098(45)          2101.4744         2098.4858                                                                  
  1170    59.6913    2175(46)          2102.6055         2099.6235                                                                  
  1171    59.7413    2148(46)          2103.7385         2100.7615                                                                  
  1172    59.7913    2129(46)          2104.8735         2101.8992                                                                  
  1173    59.8413    2131(46)          2106.0105         2103.0371                                                                  
  1174    59.8913    2131(46)          2107.1494         2104.1750                                                                  
  1175    59.9413    2093(45)          2108.2900         2105.3130                                                                  
  1176    59.9913    2125(46)          2109.4321         2106.4507                                                                  
  1177    60.0413    2144(46)          2110.5759         2107.5886                                                                  
  1178    60.0913    2149(46)          2111.7212         2108.7263                                                                  
  1179    60.1413    2102(45)          2112.8684         2109.8643                                                                  
  1180    60.1913    2104(45)          2114.0171         2111.0022                                                                  
  1181    60.2413    2074(45)          2115.1672         2112.1399                                                                  
  1182    60.2913    2206(46)          2116.3191         2113.2778                                                                  
  1183    60.3413    2176(46)          2117.4722         2114.4155                                                                  
  1184    60.3913    2139(46)          2118.6270         2115.5535                                                                  
  1185    60.4413    2092(45)          2119.7832         2116.6914                                                                  
  1186    60.4913    2171(46)          2120.9409         2117.8293                                                                  
  1187    60.5413    2227(47)          2122.0999         2118.9670                                                                  
  1188    60.5913    2224(47)          2123.2605         2120.1050                                                                  
  1189    60.6413    2133(46)          2124.4226         2121.2429                                                                  
  1190    60.6913    2185(46)          2125.5862         2122.3806                                                                  
  1191    60.7413    2104(45)          2126.7512         2123.5186                                                                  
  1192    60.7913    2092(45)          2127.9177         2124.6562                                                                  
  1193    60.8413    2160(46)          2129.0859         2125.7942                                                                  
  1194    60.8913    2142(46)          2129.9214         2126.9321                                                                  
  1195    60.9413    2144(46)          2131.0962         2128.0701                                                                  
  1196    60.9913    2191(46)          2132.2722         2129.2078                                                                  
  1197    61.0413    2243(47)          2133.4502         2130.3457                                                                  
  1198    61.0913    2127(46)          2134.6294         2131.4834                                                                  
  1199    61.1413    2157(46)          2135.8105         2132.6213                                                                  
  1200    61.1913    2263(47)          2136.9934         2133.7593                                                                  
  1201    61.2413    2224(47)          2138.1775         2134.8970                                                                  
  1202    61.2913    2239(47)          2139.3638         2136.0349                                                                  
  1203    61.3413    2195(46)          2140.5518         2137.1729                                                                  
  1204    61.3913    2131(46)          2141.7415         2138.3105                                                                  
  1205    61.4413    2180(46)          2142.9331         2139.4485                                                                  
  1206    61.4913    2132(46)          2144.1270         2140.5864                                                                  
  1207    61.5413    2163(46)          2145.3223         2141.7241                                                                  
  1208    61.5913    2129(46)          2146.5200         2142.8621                                                                  
  1209    61.6413    2212(47)          2147.7200         2144.0000                                                                  
  1210    61.6913    2144(46)          2148.9219         2145.1377                                                                  
  1211    61.7413    2055(45)          2150.1262         2146.2756                                                                  
  1212    61.7913    2123(46)          2151.3975         2147.4136                                                                  
  1213    61.8413    2178(46)          2152.6072         2148.5513                                                                  
  1214    61.8913    2226(47)          2153.8196         2149.6892                                                                  
  1215    61.9413    2207(46)          2155.0347         2150.8271                                                                  
  1216    61.9913    2153(46)          2156.2522         2151.9648                                                                  
  1217    62.0413    2187(46)          2157.4729         2153.1028                                                                  
  1218    62.0913    2126(46)          2158.6965         2154.2407                                                                  
  1219    62.1413    2155(46)          2159.9231         2155.3784                                                                  
  1220    62.1913    2131(46)          2161.4333         2156.5164                                                                  
  1221    62.2413    2153(46)          2162.6697         2157.6543                                                                  
  1222    62.2913    2193(46)          2163.9094         2158.7920                                                                  
  1223    62.3413    2224(47)          2165.1531         2159.9299                                                                  
  1224    62.3913    2215(47)          2166.4006         2161.0679                                                                  
  1225    62.4413    2193(46)          2167.6519         2162.2056                                                                  
  1226    62.4913    2203(46)          2168.9077         2163.3435                                                                  
  1227    62.5413    2211(47)          2170.1677         2164.4812                                                                  
  1228    62.5913    2235(47)          2171.4324         2165.6191                                                                  
  1229    62.6413    2263(47)          2172.7021         2166.7571                                                                  
  1230    62.6913    2192(46)          2173.9768         2167.8950                                                                  
  1231    62.7413    2163(46)          2175.2568         2169.0327                                                                  
  1232    62.7913    2211(47)          2176.5425         2170.1707                                                                  
  1233    62.8413    2245(47)          2177.8337         2171.3083                                                                  
  1234    62.8913    2223(47)          2179.1313         2172.4463                                                                  
  1235    62.9413    2227(47)          2180.4355         2173.5842                                                                  
  1236    62.9913    2256(47)          2181.7466         2174.7219                                                                  
  1237    63.0413    2332(48)          2183.0647         2175.8599                                                                  
  1238    63.0913    2296(47)          2184.3904         2176.9976                                                                  
  1239    63.1413    2315(48)          2185.7246         2178.1357                                                                  
  1240    63.1913    2174(46)          2187.0669         2179.2734                                                                  
  1241    63.2413    2265(47)          2188.4182         2180.4114                                                                  
  1242    63.2913    2269(47)          2189.7788         2181.5491                                                                  
  1243    63.3413    2249(47)          2191.1499         2182.6870                                                                  
  1244    63.3913    2219(47)          2192.5315         2183.8250                                                                  
  1245    63.4413    2231(47)          2193.9243         2184.9626                                                                  
  1246    63.4913    2305(48)          2195.3291         2186.1006                                                                  
  1247    63.5413    2285(47)          2196.7466         2187.2383                                                                  
  1248    63.5913    2285(47)          2198.1780         2188.3762                                                                  
  1249    63.6413    2239(47)          2199.6240         2189.5142                                                                  
  1250    63.6913    2250(47)          2201.0852         2190.6521                                                                  
  1251    63.7413    2256(47)          2202.5627         2191.7898                                                                  
  1252    63.7913    2261(47)          2204.0583         2192.9277                                                                  
  1253    63.8413    2316(48)          2205.5723         2194.0654                                                                  
  1254    63.8913    2301(47)          2207.1069         2195.2034                                                                  
  1255    63.9413    2283(47)          2208.6631         2196.3413                                                                  
  1256    63.9913    2330(48)          2210.2424         2197.4790                                                                  
  1257    64.0413    2240(47)          2211.8469         2198.6169                                                                  
  1258    64.0913    2286(47)          2213.4785         2199.7549                                                                  
  1259    64.1413    2238(47)          2215.1392         2200.8928                                                                  
  1260    64.1913    2262(47)          2216.8311         2202.0305                                                                  
  1261    64.2413    2202(46)          2218.5571         2203.1685                                                                  
  1262    64.2913    2197(46)          2220.3203         2204.3064                                                                  
  1263    64.3413    2289(47)          2222.1228         2205.4441                                                                  
  1264    64.3913    2343(48)          2223.9695         2206.5820                                                                  
  1265    64.4413    2282(47)          2225.8628         2207.7197                                                                  
  1266    64.4913    2322(48)          2227.8083         2208.8577                                                                  
  1267    64.5413    2325(48)          2229.8105         2209.9956                                                                  
  1268    64.5913    2296(47)          2231.8740         2211.1333                                                                  
  1269    64.6413    2339(48)          2234.0059         2212.2712                                                                  
  1270    64.6913    2378(48)          2236.2122         2213.4089                                                                  
  1271    64.7413    2304(48)          2238.5015         2214.5469                                                                  
  1272    64.7913    2280(47)          2240.8818         2215.6848                                                                  
  1273    64.8413    2367(48)          2243.3633         2216.8228                                                                  
  1274    64.8913    2334(48)          2245.9570         2217.9604                                                                  
  1275    64.9413    2387(48)          2248.6760         2219.0984                                                                  
  1276    64.9913    2351(48)          2251.5354         2220.2363                                                                  
  1277    65.0413    2395(48)          2254.5518         2221.3740                                                                  
  1278    65.0913    2313(48)          2257.7446         2222.5120                                                                  
  1279    65.1413    2393(48)          2261.1379         2223.6499                                                                  
  1280    65.1913    2414(49)          2264.7571         2224.7876                                                                  
  1281    65.2413    2371(48)          2268.6345         2225.9255                                                                  
  1282    65.2913    2382(48)          2272.8069         2227.0635                                                                  
  1283    65.3413    2373(48)          2277.3169         2228.2012                                                                  
  1284    65.3913    2324(48)          2282.2185         2229.3391                                                                  
  1285    65.4413    2306(48)          2287.5723         2230.4768                                                                  
  1286    65.4913    2313(48)          2293.4558         2231.6147                                                                  
  1287    65.5413    2351(48)          2299.9602         2232.7527                                                                  
  1288    65.5913    2373(48)          2307.1963         2233.8904                                                                  
  1289    65.6413    2510(50)          2315.3059         2235.0283                                                                  
  1290    65.6913    2289(47)          2324.4597         2236.1660                                                                  
  1291    65.7413    2375(48)          2334.8789         2237.3040                                                                  
  1292    65.7913    2340(48)          2346.8396         2238.4419                                                                  
  1293    65.8413    2377(48)          2360.6978         2239.5798                                                                  
  1294    65.8913    2452(49)          2376.9233         2240.7178                                                                  
  1295    65.9413    2427(49)          2396.1299         2241.8555                                                                  
  1296    65.9913    2443(49)          2419.1721         2242.9934                                                                  
  1297    66.0413    2562(50)          2447.3262         2244.1313                                                                  
  1298    66.0913    2541(50)          2483.0098         2245.2690                                                                  
  1299    66.1413    2807(52)          2532.4946         2246.4070                                                                  
  1300    66.1913    3700(60)          2615.7437         2247.5447                                                                  
  1301    66.2413    5580(74)          2793.8433         2248.6826                                                                  
  1302    66.2913    9539(97)          3232.5391         2249.8206                                                                  
  1303    66.3413    17283(131)          4306.2188         2250.9583                                                                
  1304    66.3913    29252(171)          6690.4292         2252.0962                                                                
  1305    66.4413    45795(213)         11284.2246         2253.2339                                                                
  1306    66.4913    64292(253)         18781.7891         2254.3718                                                                
  1307    66.5413    80456(283)         28904.3047         2255.5098                                                                
  1308    66.5913    89233(298)         39770.1562         2256.6475                                                                
  1309    66.6413    88831(298)         48089.9766         2257.7854                                                                
  1310    66.6913    79926(282)         50538.0000         2258.9233                                                                
  1311    66.7413    63846(252)         45988.3555         2260.0610                                                                
  1312    66.7913    46006(214)         36478.1836         2261.1992                                                                
  1313    66.8413    29991(173)         25544.2188         2262.3369                                                                
  1314    66.8913    17716(133)         16124.2979         2263.4749                                                                
  1315    66.9413    9706(98)          9569.8584         2264.6125                                                                  
  1316    66.9913    5498(74)          5765.8560         2265.7505                                                                  
  1317    67.0413    3675(60)          3884.5449         2266.8884                                                                  
  1318    67.0913    2782(52)          3069.2690         2268.0261                                                                  
  1319    67.1413    2537(50)          2742.4565         2269.1641                                                                  
  1320    67.1913    2583(50)          2607.5085         2270.3018                                                                  
  1321    67.2413    2641(51)          2540.8943         2271.4397                                                                  
  1322    67.2913    2471(49)          2499.1921         2272.5776                                                                  
  1323    67.3413    2438(49)          2468.6045         2273.7153                                                                  
  1324    67.3913    2446(49)          2444.5720         2274.8533                                                                  
  1325    67.4413    2559(50)          2425.1853         2275.9912                                                                  
  1326    67.4913    2416(49)          2409.3318         2277.1289                                                                  
  1327    67.5413    2375(48)          2396.2507         2278.2668                                                                  
  1328    67.5913    2406(49)          2385.3789         2279.4048                                                                  
  1329    67.6413    2366(48)          2376.2842         2280.5425                                                                  
  1330    67.6913    2463(49)          2368.6401         2281.6804                                                                  
  1331    67.7413    2411(49)          2362.1870         2282.8184                                                                  
  1332    67.7913    2422(49)          2356.7234         2283.9563                                                                  
  1333    67.8413    2432(49)          2352.0884         2285.0940                                                                  
  1334    67.8913    2395(48)          2348.1506         2286.2319                                                                  
  1335    67.9413    2485(49)          2344.8059         2287.3696                                                                  
  1336    67.9913    2456(49)          2341.9675         2288.5076                                                                  
  1337    68.0413    2477(49)          2339.5647         2289.6455                                                                  
  1338    68.0913    2423(49)          2337.5388         2290.7832                                                                  
  1339    68.1413    2357(48)          2335.8406         2291.9211                                                                  
  1340    68.1913    2440(49)          2334.4290         2293.0588                                                                  
  1341    68.2413    2424(49)          2333.2688         2294.1968                                                                  
  1342    68.2913    2433(49)          2332.3311         2295.3347                                                                  
  1343    68.3413    2450(49)          2331.5906         2296.4724                                                                  
  1344    68.3913    2352(48)          2331.0254         2297.6104                                                                  
  1345    68.4413    2286(47)          2330.6177         2298.7480                                                                  
  1346    68.4913    2390(48)          2330.3513         2299.8862                                                                  
  1347    68.5413    2461(49)          2330.2122         2301.0239                                                                  
  1348    68.5913    2346(48)          2330.1892         2302.1619                                                                  
  1349    68.6413    2336(48)          2330.2715         2303.2998                                                                  
  1350    68.6913    2304(48)          2330.4504         2304.4375                                                                  
  1351    68.7413    2380(48)          2330.7183         2305.5754                                                                  
  1352    68.7913    2387(48)          2331.0681         2306.7134                                                                  
  1353    68.8413    2381(48)          2331.4944         2307.8511                                                                  
  1354    68.8913    2258(47)          2331.9922         2308.9890                                                                  
  1355    68.9413    2332(48)          2332.5569         2310.1267                                                                  
  1356    68.9913    2336(48)          2333.1855         2311.2646                                                                  
  1357    69.0413    2360(48)          2333.8748         2312.4026                                                                  
  1358    69.0913    2317(48)          2334.6218         2313.5403                                                                  
  1359    69.1413    2394(48)          2335.4255         2314.6782                                                                  
  1360    69.1913    2320(48)          2336.2842         2315.8159                                                                  
  1361    69.2413    2308(48)          2337.1968         2316.9539                                                                  
  1362    69.2913    2274(47)          2338.1631         2318.0918                                                                  
  1363    69.3413    2371(48)          2339.1829         2319.2295                                                                  
  1364    69.3913    2323(48)          2340.2573         2320.3674                                                                  
  1365    69.4413    2406(49)          2341.3870         2321.5054                                                                  
  1366    69.4913    2336(48)          2342.5737         2322.6433                                                                  
  1367    69.5413    2314(48)          2343.8201         2323.7812                                                                  
  1368    69.5913    2397(48)          2345.1287         2324.9189                                                                  
  1369    69.6413    2350(48)          2346.5037         2326.0569                                                                  
  1370    69.6913    2431(49)          2347.9492         2327.1946                                                                  
  1371    69.7413    2448(49)          2349.4719         2328.3325                                                                  
  1372    69.7913    2424(49)          2351.0781         2329.4705                                                                  
  1373    69.8413    2481(49)          2352.7759         2330.6082                                                                  
  1374    69.8913    2370(48)          2354.5759         2331.7461                                                                  
  1375    69.9413    2372(48)          2356.4895         2332.8838                                                                  
  1376    69.9913    2455(49)          2358.5320         2334.0217                                                                  
  1377    70.0413    2435(49)          2360.7205         2335.1597                                                                  
  1378    70.0913    2406(49)          2363.0754         2336.2974                                                                  
  1379    70.1413    2402(49)          2365.6243         2337.4353                                                                  
  1380    70.1913    2362(48)          2368.3972         2338.5732                                                                  
  1381    70.2413    2417(49)          2371.4341         2339.7109                                                                  
  1382    70.2913    2438(49)          2374.7837         2340.8489                                                                  
  1383    70.3413    2362(48)          2378.5059         2341.9868                                                                  
  1384    70.3913    2423(49)          2382.6782         2343.1245                                                                  
  1385    70.4413    2539(50)          2387.3989         2344.2625                                                                  
  1386    70.4913    2498(49)          2392.7954         2345.4004                                                                  
  1387    70.5413    2480(49)          2399.0344         2346.5383                                                                  
  1388    70.5913    2454(49)          2406.3369         2347.6760                                                                  
  1389    70.6413    2390(48)          2415.0168         2348.8140                                                                  
  1390    70.6913    2410(49)          2425.5610         2349.9517                                                                  
  1391    70.7413    2534(50)          2438.9722         2351.0896                                                                  
  1392    70.7913    2670(51)          2457.9829         2352.2275                                                                  
  1393    70.8413    3074(55)          2491.3872         2353.3652                                                                  
  1394    70.8913    3791(61)          2563.6016         2354.5032                                                                  
  1395    70.9413    5310(72)          2739.1858         2355.6409                                                                  
  1396    70.9913    8149(90)          3154.6829         2356.7788                                                                  
  1397    71.0413    12545(112)          4038.3564         2357.9167                                                                
  1398    71.0913    17636(132)          5662.5391         2359.0544                                                                
  1399    71.1413    23209(152)          8181.8286         2360.1924                                                                
  1400    71.1913    27037(164)         11392.4912         2361.3303                                                                
  1401    71.2413    28868(169)         14591.5430         2362.4683                                                                
  1402    71.2913    28009(167)         16718.3281         2363.6060                                                                
  1403    71.3413    24891(157)         16870.5762         2364.7439                                                                
  1404    71.3913    19675(140)         14977.2588         2365.8818                                                                
  1405    71.4413    14342(119)         11862.3047         2367.0195                                                                
  1406    71.4913    9764(98)          8601.8506         2368.1575                                                                  
  1407    71.5413    6312(79)          5966.3027         2369.2954                                                                  
  1408    71.5913    4189(64)          4224.3428         2370.4331                                                                  
  1409    71.6413    3172(56)          3256.3044         2371.5710                                                                  
  1410    71.6913    2761(52)          2793.8574         2372.7087                                                                  
  1411    71.7413    2587(50)          2597.3660         2373.8467                                                                  
  1412    71.7913    2477(49)          2518.0703         2374.9846                                                                  
  1413    71.8413    2385(48)          2483.7622         2376.1223                                                                  
  1414    71.8913    2451(49)          2465.6296         2377.2603                                                                  
  1415    71.9413    2397(48)          2453.7756         2378.3979                                                                  
  1416    71.9913    2454(49)          2445.0081         2379.5359                                                                  
  1417    72.0413    2337(48)          2438.1975         2380.6738                                                                  
  1418    72.0913    2389(48)          2432.8137         2381.8115                                                                  
  1419    72.1413    2407(49)          2428.5271         2382.9497                                                                  
  1420    72.1913    2425(49)          2425.1055         2384.0874                                                                  
  1421    72.2413    2380(48)          2422.3745         2385.2253                                                                  
  1422    72.2913    2439(49)          2420.2026         2386.3633                                                                  
  1423    72.3413    2388(48)          2418.4878         2387.5010                                                                  
  1424    72.3913    2380(48)          2417.1494         2388.6389                                                                  
  1425    72.4413    2395(48)          2416.1250         2389.7766                                                                  
  1426    72.4913    2366(48)          2415.3633         2390.9146                                                                  
  1427    72.5413    2387(48)          2414.8240         2392.0525                                                                  
  1428    72.5913    2438(49)          2414.4739         2393.1902                                                                  
  1429    72.6413    2428(49)          2414.2859         2394.3281                                                                  
  1430    72.6913    2391(48)          2414.2373         2395.4658                                                                  
  1431    72.7413    2329(48)          2414.3098         2396.6038                                                                  
  1432    72.7913    2399(48)          2414.4878         2397.7417                                                                  
  1433    72.8413    2303(47)          2414.7578         2398.8794                                                                  
  1434    72.8913    2376(48)          2415.1091         2400.0173                                                                  
  1435    72.9413    2359(48)          2415.5322         2401.1553                                                                  
  1436    72.9913    2426(49)          2416.0188         2402.2930                                                                  
  1437    73.0413    2475(49)          2416.5627         2403.4312                                                                  
  1438    73.0913    2412(49)          2417.1570         2404.5688                                                                  
  1439    73.1413    2423(49)          2417.7969         2405.7065                                                                  
  1440    73.1913    2436(49)          2417.9990         2406.3652                                                                  
  1441    73.2413    2448(49)          2418.1033         2406.8887                                                                  
  1442    73.2913    2410(49)          2418.2412         2407.4119                                                                  
  1443    73.3413    2432(49)          2418.4106         2407.9353                                                                  
  1444    73.3913    2402(49)          2418.6086         2408.4587                                                                  
  1445    73.4413    2437(49)          2418.8325         2408.9819                                                                  
  1446    73.4913    2405(49)          2419.0811         2409.5054                                                                  
  1447    73.5413    2449(49)          2419.3521         2410.0288                                                                  
  1448    73.5913    2371(48)          2419.6443         2410.5520                                                                  
  1449    73.6413    2403(49)          2419.9565         2411.0754                                                                  
  1450    73.6913    2423(49)          2420.2874         2411.5986                                                                  
  1451    73.7413    2377(48)          2420.6362         2412.1221                                                                  
  1452    73.7913    2388(48)          2421.0022         2412.6455                                                                  
  1453    73.8413    2401(49)          2421.3845         2413.1687                                                                  
  1454    73.8913    2414(49)          2421.7832         2413.6921                                                                  
  1455    73.9413    2442(49)          2422.1978         2414.2156                                                                  
  1456    73.9913    2445(49)          2422.6274         2414.7388                                                                  
  1457    74.0413    2444(49)          2423.0730         2415.2622                                                                  
  1458    74.0913    2414(49)          2423.5339         2415.7856                                                                  
  1459    74.1413    2494(49)          2424.0107         2416.3088                                                                  
  1460    74.1913    2454(49)          2424.5042         2416.8323                                                                  
  1461    74.2413    2469(49)          2425.0146         2417.3557                                                                  
  1462    74.2913    2377(48)          2425.5425         2417.8789                                                                  
  1463    74.3413    2430(49)          2426.0896         2418.4023                                                                  
  1464    74.3913    2493(49)          2426.6570         2418.9258                                                                  
  1465    74.4413    2428(49)          2427.2463         2419.4490                                                                  
  1466    74.4913    2422(49)          2427.8601         2419.9724                                                                  
  1467    74.5413    2523(50)          2428.5007         2420.4958                                                                  
  1468    74.5913    2406(49)          2429.1711         2421.0190                                                                  
  1469    74.6413    2486(49)          2429.8760         2421.5425                                                                  
  1470    74.6913    2467(49)          2430.6194         2422.0657                                                                  
  1471    74.7413    2487(49)          2431.4082         2422.5891                                                                  
  1472    74.7913    2575(50)          2432.2495         2423.1125                                                                  
  1473    74.8413    2582(50)          2433.1528         2423.6357                                                                  
  1474    74.8913    2466(49)          2434.1306         2424.1592                                                                  
  1475    74.9413    2561(50)          2435.1978         2424.6826                                                                  
  1476    74.9913    2489(49)          2436.3740         2425.2058                                                                  
  1477    75.0413    2549(50)          2437.6855         2425.7292                                                                  
  1478    75.0913    2540(50)          2439.1667         2426.2527                                                                  
  1479    75.1413    2524(50)          2440.8655         2426.7759                                                                  
  1480    75.1913    2565(50)          2442.8577         2427.2993                                                                  
  1481    75.2413    2504(50)          2445.2976         2427.8228                                                                  
  1482    75.2913    2507(50)          2448.5986         2428.3459                                                                  
  1483    75.3413    2598(50)          2454.0032         2428.8694                                                                  
  1484    75.3913    2789(52)          2465.0728         2429.3928                                                                  
  1485    75.4413    2851(53)          2490.7119         2429.9160                                                                  
  1486    75.4913    3185(56)          2549.5435         2430.4395                                                                  
  1487    75.5413    3756(61)          2673.1785         2430.9629                                                                  
  1488    75.5913    4081(63)          2898.3091         2431.4861                                                                  
  1489    75.6413    4440(66)          3250.1658         2432.0095                                                                  
  1490    75.6913    4908(70)          3708.8796         2432.5327                                                                  
  1491    75.7413    5221(72)          4188.2671         2433.0562                                                                  
  1492    75.7913    5190(72)          4546.7490         2433.5796                                                                  
  1493    75.8413    4760(68)          4645.6411         2434.1028                                                                  
  1494    75.8913    4227(65)          4441.1274         2434.6262                                                                  
  1495    75.9413    3774(61)          4020.6387         2435.1497                                                                  
  1496    75.9913    3383(58)          3535.5811         2435.6729                                                                  
  1497    76.0413    3085(55)          3110.5166         2436.1963                                                                  
  1498    76.0913    2797(52)          2806.6672         2436.7197                                                                  
  1499    76.1413    2774(52)          2623.9260         2437.2429                                                                  
  1500    76.1913    2818(53)          2529.6323         2437.7664                                                                  
  1501    76.2413    2748(52)          2486.8762         2438.2898                                                                  
  1502    76.2913    2670(51)          2469.1353         2438.8130                                                                  
  1503    76.3413    2657(51)          2461.8396         2439.3364                                                                  
  1504    76.3913    2614(51)          2458.4880         2439.8599                                                                  
  1505    76.4413    2696(51)          2456.6252         2440.3831                                                                  
  1506    76.4913    2714(52)          2455.4199         2440.9065                                                                  
  1507    76.5413    2803(52)          2454.5901         2441.4299                                                                  
  1508    76.5913    2692(51)          2454.0212         2441.9531                                                                  
  1509    76.6413    2688(51)          2453.6504         2442.4766                                                                  
  1510    76.6913    2707(52)          2453.4353         2442.9998                                                                  
  1511    76.7413    2654(51)          2453.3455         2443.5232                                                                  
  1512    76.7913    2697(51)          2453.3569         2444.0466                                                                  
  1513    76.8413    2608(51)          2453.4519         2444.5698                                                                  
  1514    76.8913    2693(51)          2453.6165         2445.0933                                                                  
  1515    76.9413    2730(52)          2453.8396         2445.6167                                                                  
  1516    76.9913    2728(52)          2454.1123         2446.1399                                                                  
  1517    77.0413    2697(51)          2454.4280         2446.6633                                                                  
  1518    77.0913    2643(51)          2454.7810         2447.1868                                                                  
  1519    77.1413    2745(52)          2455.1665         2447.7100                                                                  
  1520    77.1913    2677(51)          2455.5813         2448.2334                                                                  
  1521    77.2413    2622(51)          2456.0222         2448.7568                                                                  
  1522    77.2913    2596(50)          2456.4866         2449.2803                                                                  
  1523    77.3413    2651(51)          2456.9724         2449.8035                                                                  
  1524    77.3913    2600(50)          2457.4788         2450.3269                                                                  
  1525    77.4413    2543(50)          2458.0039         2450.8501                                                                  
  1526    77.4913    2633(51)          2458.5471         2451.3735                                                                  
  1527    77.5413    2593(50)          2459.1074         2451.8970                                                                  
  1528    77.5913    2527(50)          2459.6843         2452.4202                                                                  
  1529    77.6413    2673(51)          2460.2778         2452.9436                                                                  
  1530    77.6913    2667(51)          2460.8875         2453.4668                                                                  
  1531    77.7413    2699(51)          2461.5137         2453.9902                                                                  
  1532    77.7913    2685(51)          2462.1562         2454.5137                                                                  
  1533    77.8413    2611(51)          2462.8157         2455.0371                                                                  
  1534    77.8913    2660(51)          2463.4922         2455.5603                                                                  
  1535    77.9413    2650(51)          2464.1870         2456.0837                                                                  
  1536    77.9913    2609(51)          2464.9009         2456.6072                                                                  
  1537    78.0413    2591(50)          2465.6340         2457.1304                                                                  
  1538    78.0913    2638(51)          2466.3887         2457.6538                                                                  
  1539    78.1413    2622(51)          2467.1655         2458.1772                                                                  
  1540    78.1913    2557(50)          2467.9663         2458.7004                                                                  
  1541    78.2413    2632(51)          2468.7932         2459.2239                                                                  
  1542    78.2913    2552(50)          2469.6484         2459.7473                                                                  
  1543    78.3413    2566(50)          2470.5337         2460.2705                                                                  
  1544    78.3913    2529(50)          2471.4526         2460.7939                                                                  
  1545    78.4413    2525(50)          2472.4082         2461.3171                                                                  
  1546    78.4913    2609(51)          2473.4043         2461.8406                                                                  
  1547    78.5413    2575(50)          2474.4456         2462.3640                                                                  
  1548    78.5913    2510(50)          2475.5364         2462.8872                                                                  
  1549    78.6413    2496(49)          2476.6831         2463.4106                                                                  
  1550    78.6913    2607(51)          2477.8923         2463.9341                                                                  
  1551    78.7413    2690(51)          2479.1719         2464.4573                                                                  
  1552    78.7913    2580(50)          2480.5315         2464.9807                                                                  
  1553    78.8413    2567(50)          2481.9817         2465.5042                                                                  
  1554    78.8913    2542(50)          2483.5356         2466.0273                                                                  
  1555    78.9413    2621(51)          2485.2085         2466.5508                                                                  
  1556    78.9913    2606(51)          2487.0193         2467.0742                                                                  
  1557    79.0413    2616(51)          2488.9895         2467.5974                                                                  
  1558    79.0913    2671(51)          2491.1465         2468.1208                                                                  
  1559    79.1413    2566(50)          2493.5229         2468.6443                                                                  
  1560    79.1913    2526(50)          2496.1589         2469.1675                                                                  
  1561    79.2413    2578(50)          2499.1057         2469.6909                                                                  
  1562    79.2913    2627(51)          2502.4255         2470.2144                                                                  
  1563    79.3413    2678(51)          2506.1973         2470.7375                                                                  
  1564    79.3913    2643(51)          2510.5239         2471.2610                                                                  
  1565    79.4413    2615(51)          2515.5361         2471.7842                                                                  
  1566    79.4913    2635(51)          2521.4092         2472.3076                                                                  
  1567    79.5413    2610(51)          2528.6218         2472.8311                                                                  
  1568    79.5913    2675(51)          2537.0217         2473.3542                                                                  
  1569    79.6413    2741(52)          2547.4307         2473.8777                                                                  
  1570    79.6913    2889(53)          2561.1489         2474.4011                                                                  
  1571    79.7413    3147(56)          2581.8933         2474.9243                                                                  
  1572    79.7913    3774(61)          2620.7073         2475.4478                                                                  
  1573    79.8413    5054(71)          2707.5959         2475.9712                                                                  
  1574    79.8913    7371(85)          2912.3342         2476.4944                                                                  
  1575    79.9413    10713(103)          3367.3748         2477.0178                                                                
  1576    79.9913    14943(122)          4267.3096         2477.5413                                                                
  1577    80.0413    19467(139)          5802.5830         2478.0645                                                                
  1578    80.0913    23744(154)          8012.0830         2478.5879                                                                
  1579    80.1413    25288(159)         10619.3652         2479.1113                                                                
  1580    80.1913    25129(158)         12982.2373         2479.6345                                                                
  1581    80.2413    23193(152)         14277.0479         2480.1580                                                                
  1582    80.2913    19469(139)         13942.6914         2480.6814                                                                
  1583    80.3413    15311(123)         12133.1211         2481.2046                                                                
  1584    80.3913    11166(105)          9579.2002         2481.7280                                                                
  1585    80.4413    7700(87)          7072.7070         2482.2512                                                                  
  1586    80.4913    5404(73)          5117.5532         2482.7747                                                                  
  1587    80.5413    4027(63)          3851.4282         2483.2981                                                                  
  1588    80.5913    3185(56)          3153.8440         2483.8213                                                                  
  1589    80.6413    2860(53)          2819.1169         2484.3447                                                                  
  1590    80.6913    2799(52)          2674.0171         2484.8682                                                                  
  1591    80.7413    2781(52)          2612.8267         2485.3914                                                                  
  1592    80.7913    2752(52)          2584.4763         2485.9148                                                                  
  1593    80.8413    2722(52)          2568.4128         2486.4382                                                                  
  1594    80.8913    2680(51)          2557.3481         2486.9614                                                                  
  1595    80.9413    2725(52)          2548.9971         2487.4849                                                                  
  1596    80.9913    2779(52)          2542.3811         2488.0083                                                                  
  1597    81.0413    2629(51)          2537.0488         2488.5315                                                                  
  1598    81.0913    2592(50)          2532.7129         2489.0549                                                                  
  1599    81.1413    2677(51)          2529.1648         2489.5784                                                                  
  1600    81.1913    2677(51)          2526.2507         2490.1016                                                                  
  1601    81.2413    2611(51)          2523.8511         2490.6250                                                                  
  1602    81.2913    2582(50)          2521.8748         2491.1484                                                                  
  1603    81.3413    2641(51)          2520.2493         2491.6716                                                                  
  1604    81.3913    2710(52)          2518.9175         2492.1951                                                                  
  1605    81.4413    2657(51)          2517.8340         2492.7183                                                                  
  1606    81.4913    2676(51)          2516.9619         2493.2417                                                                  
  1607    81.5413    2754(52)          2516.2710         2493.7651                                                                  
  1608    81.5913    2717(52)          2515.7371         2494.2883                                                                  
  1609    81.6413    2576(50)          2515.3403         2494.8118                                                                  
  1610    81.6913    2637(51)          2515.0637         2495.3352                                                                  
  1611    81.7413    2747(52)          2514.8933         2495.8584                                                                  
  1612    81.7913    2607(51)          2514.8179         2496.3818                                                                  
  1613    81.8413    2653(51)          2514.8284         2496.9053                                                                  
  1614    81.8913    2612(51)          2514.9158         2497.4285                                                                  
  1615    81.9413    2586(50)          2515.0742         2497.9519                                                                  
  1616    81.9913    2639(51)          2515.2981         2498.4753                                                                  
  1617    82.0413    2618(51)          2515.5823         2498.9985                                                                  
  1618    82.0913    2707(52)          2515.9241         2499.5220                                                                  
  1619    82.1413    2594(50)          2516.3198         2500.0454                                                                  
  1620    82.1913    2591(50)          2516.7673         2500.5686                                                                  
  1621    82.2413    2681(51)          2517.2654         2501.0920                                                                  
  1622    82.2913    2653(51)          2517.8125         2501.6155                                                                  
  1623    82.3413    2733(52)          2518.4082         2502.1387                                                                  
  1624    82.3913    2664(51)          2519.0522         2502.6621                                                                  
  1625    82.4413    2619(51)          2519.7454         2503.1853                                                                  
  1626    82.4913    2606(51)          2520.4883         2503.7087                                                                  
  1627    82.5413    2664(51)          2521.2827         2504.2322                                                                  
  1628    82.5913    2656(51)          2522.1301         2504.7554                                                                  
  1629    82.6413    2637(51)          2523.0334         2505.2788                                                                  
  1630    82.6913    2598(50)          2523.9958         2505.8022                                                                  
  1631    82.7413    2652(51)          2525.0210         2506.3254                                                                  
  1632    82.7913    2681(51)          2526.1140         2506.8489                                                                  
  1633    82.8413    2653(51)          2527.2798         2507.3723                                                                  
  1634    82.8913    2611(51)          2528.5249         2507.8955                                                                  
  1635    82.9413    2578(50)          2529.8572         2508.4189                                                                  
  1636    82.9913    2589(50)          2531.2859         2508.9424                                                                  
  1637    83.0413    2617(51)          2532.8210         2509.4658                                                                  
  1638    83.0913    2610(51)          2535.0759         2510.5901                                                                  
  1639    83.1413    2580(50)          2537.6152         2511.8650                                                                  
  1640    83.1913    2715(52)          2540.3049         2513.1396                                                                  
  1641    83.2413    2638(51)          2543.1667         2514.4146                                                                  
  1642    83.2913    2585(50)          2546.2241         2515.6895                                                                  
  1643    83.3413    2753(52)          2549.5061         2516.9641                                                                  
  1644    83.3913    2670(51)          2553.0488         2518.2390                                                                  
  1645    83.4413    2692(51)          2556.8940         2519.5137                                                                  
  1646    83.4913    2687(51)          2561.0950         2520.7886                                                                  
  1647    83.5413    2773(52)          2565.7151         2522.0635                                                                  
  1648    83.5913    2675(51)          2570.8330         2523.3381                                                                  
  1649    83.6413    2647(51)          2576.5496         2524.6130                                                                  
  1650    83.6913    2625(51)          2582.9883         2525.8877                                                                  
  1651    83.7413    2542(50)          2590.3115         2527.1626                                                                  
  1652    83.7913    2678(51)          2598.7246         2528.4375                                                                  
  1653    83.8413    2650(51)          2608.4966         2529.7122                                                                  
  1654    83.8913    2784(52)          2620.0962         2530.9871                                                                  
  1655    83.9413    2819(53)          2633.8020         2532.2620                                                                  
  1656    83.9913    2759(52)          2650.4480         2533.5366                                                                  
  1657    84.0413    2949(54)          2671.3242         2534.8115                                                                  
  1658    84.0913    3371(58)          2699.5234         2536.0864                                                                  
  1659    84.1413    4295(65)          2744.2339         2537.3611                                                                  
  1660    84.1913    6041(77)          2832.9863         2538.6360                                                                  
  1661    84.2413    9253(96)          3039.3748         2539.9106                                                                  
  1662    84.2913    14179(119)          3527.1187         2541.1855                                                                
  1663    84.3413    20423(142)          4584.3345         2542.4604                                                                
  1664    84.3913    26974(164)          6579.5171         2543.7351                                                                
  1665    84.4413    32511(180)          9760.6191         2545.0100                                                                
  1666    84.4913    35853(189)         13934.1660         2546.2849                                                                
  1667    84.5413    36014(189)         18227.9609         2547.5596                                                                
  1668    84.5913    32942(181)         21219.5801         2548.8345                                                                
  1669    84.6413    28504(168)         21596.9492         2550.1094                                                                
  1670    84.6913    22571(150)         19172.7051         2551.3840                                                                
  1671    84.7413    16876(129)         15064.7090         2552.6589                                                                
  1672    84.7913    11565(107)         10753.2998         2553.9336                                                                
  1673    84.8413    7880(88)          7280.7910         2555.2085                                                                  
  1674    84.8913    5445(73)          4999.9189         2556.4834                                                                  
  1675    84.9413    3869(62)          3742.8877         2557.7581                                                                  
  1676    84.9913    3072(55)          3145.7310         2559.0330                                                                  
  1677    85.0413    2845(53)          2890.7949         2560.3079                                                                  
  1678    85.0913    2806(52)          2784.4861         2561.5825                                                                  
  1679    85.1413    2730(52)          2734.9592         2562.8574                                                                  
  1680    85.1913    2709(52)          2706.4075         2564.1321                                                                  
  1681    85.2413    2657(51)          2686.6331         2565.4070                                                                  
  1682    85.2913    2714(52)          2671.6108         2566.6819                                                                  
  1683    85.3413    2768(52)          2659.7236         2567.9565                                                                  
  1684    85.3913    2676(51)          2650.2568         2569.2314                                                                  
  1685    85.4413    2621(51)          2642.6206         2570.5061                                                                  
  1686    85.4913    2697(51)          2636.4246         2571.7810                                                                  
  1687    85.5413    2721(52)          2631.3799         2573.0559                                                                  
  1688    85.5913    2734(52)          2627.2656         2574.3306                                                                  
  1689    85.6413    2681(51)          2623.9106         2575.6055                                                                  
  1690    85.6913    2641(51)          2621.1821         2576.8801                                                                  
  1691    85.7413    2670(51)          2618.9741         2578.1550                                                                  
  1692    85.7913    2651(51)          2617.2034         2579.4299                                                                  
  1693    85.8413    2580(50)          2615.8020         2580.7046                                                                  
  1694    85.8913    2592(50)          2614.7151         2581.9795                                                                  
  1695    85.9413    2612(51)          2613.8977         2583.2542                                                                  
  1696    85.9913    2545(50)          2613.3127         2584.5291                                                                  
  1697    86.0413    2566(50)          2612.9297         2585.8040                                                                  
  1698    86.0913    2671(51)          2612.7227         2587.0786                                                                  
  1699    86.1413    2663(51)          2612.6704         2588.3535                                                                  
  1700    86.1913    2582(50)          2612.7544         2589.6282                                                                  
  1701    86.2413    2552(50)          2612.9600         2590.9031                                                                  
  1702    86.2913    2573(50)          2613.2737         2592.1780                                                                  
  1703    86.3413    2718(52)          2613.6846         2593.4526                                                                  
  1704    86.3913    2708(52)          2614.1831         2594.7275                                                                  
  1705    86.4413    2639(51)          2614.7610         2596.0022                                                                  
  1706    86.4913    2635(51)          2615.4119         2597.2771                                                                  
  1707    86.5413    2592(50)          2616.1296         2598.5520                                                                  
  1708    86.5913    2638(51)          2616.9089         2599.8267                                                                  
  1709    86.6413    2650(51)          2617.7461         2601.1016                                                                  
  1710    86.6913    2604(51)          2618.6370         2602.3762                                                                  
  1711    86.7413    2628(51)          2619.5793         2603.6511                                                                  
  1712    86.7913    2658(51)          2620.5703         2604.9260                                                                  
  1713    86.8413    2646(51)          2621.6082         2606.2007                                                                  
  1714    86.8913    2655(51)          2622.6917         2607.4756                                                                  
  1715    86.9413    2700(51)          2623.8196         2608.7502                                                                  
  1716    86.9913    2605(51)          2624.9919         2610.0251                                                                  
  1717    87.0413    2612(51)          2626.2087         2611.3000                                                                  
  1718    87.0913    2683(51)          2627.4697         2612.5747                                                                  
  1719    87.1413    2637(51)          2628.7771         2613.8496                                                                  
  1720    87.1913    2593(50)          2630.1313         2615.1243                                                                  
  1721    87.2413    2643(51)          2631.5352         2616.3992                                                                  
  1722    87.2913    2677(51)          2632.9910         2617.6741                                                                  
  1723    87.3413    2624(51)          2634.5022         2618.9487                                                                  
  1724    87.3913    2606(51)          2636.0732         2620.2236                                                                  
  1725    87.4413    2533(50)          2637.7092         2621.4983                                                                  
  1726    87.4913    2603(51)          2639.4167         2622.7732                                                                  
  1727    87.5413    2624(51)          2641.2031         2624.0481                                                                  
  1728    87.5913    2634(51)          2643.0776         2625.3228                                                                  
  1729    87.6413    2629(51)          2645.0515         2626.5977                                                                  
  1730    87.6913    2647(51)          2647.1382         2627.8723                                                                  
  1731    87.7413    2701(51)          2649.3545         2629.1472                                                                  
  1732    87.7913    2623(51)          2651.7202         2630.4221                                                                  
  1733    87.8413    2644(51)          2654.2595         2631.6968                                                                  
  1734    87.8913    2608(51)          2657.0042         2632.9717                                                                  
  1735    87.9413    2508(50)          2659.9905         2634.2463                                                                  
  1736    87.9913    2665(51)          2663.2676         2635.5212                                                                  
  1737    88.0413    2604(51)          2666.8953         2636.7961                                                                  
  1738    88.0913    2593(50)          2670.9502         2638.0708                                                                  
  1739    88.1413    2627(51)          2675.5342         2639.3457                                                                  
  1740    88.1913    2727(52)          2680.7773         2640.6204                                                                  
  1741    88.2413    2763(52)          2686.8596         2641.8953                                                                  
  1742    88.2913    2738(52)          2694.0337         2643.1702                                                                  
  1743    88.3413    2766(52)          2702.7200         2644.4448                                                                  
  1744    88.3913    2867(53)          2713.8323         2645.7197                                                                  
  1745    88.4413    3110(55)          2729.8555         2646.9944                                                                  
  1746    88.4913    3648(60)          2758.0271         2648.2693                                                                  
  1747    88.5413    4491(67)          2817.7832         2649.5442                                                                  
  1748    88.5913    5694(75)          2954.0142         2650.8188                                                                  
  1749    88.6413    7524(86)          3251.9651         2652.0938                                                                  
  1750    88.6913    9490(97)          3836.7407         2653.3684                                                                  
  1751    88.7413    11244(106)          4832.2969         2654.6433                                                                
  1752    88.7913    12383(111)          6267.4277         2655.9182                                                                
  1753    88.8413    13002(114)          7969.1367         2657.1929                                                                
  1754    88.8913    12718(112)          9527.6816         2658.4678                                                                
  1755    88.9413    11659(107)         10401.9785         2659.7424                                                                
  1756    88.9913    10068(100)         10209.9854         2661.0173                                                                
  1757    89.0413    8461(91)          9041.8203         2662.2922                                                                  
  1758    89.0913    6673(81)          7377.5845         2663.5669                                                                  
  1759    89.1413    5279(72)          5735.4517         2664.8418                                                                  
  1760    89.1913    4167(64)          4447.6494         2666.1165                                                                  
  1761    89.2413    3369(58)          3607.1719         2667.3914                                                                  
  1762    89.2913    3005(54)          3139.6348         2668.6663                                                                  
  1763    89.3413    2866(53)          2912.6226         2669.9409                                                                  
  1764    89.3913    2757(52)          2812.6382         2671.2158                                                                  
  1765    89.4413    2685(51)          2769.7131         2672.4905                                                                  
  1766    89.4913    2779(52)          2749.5417         2673.7654                                                                  
  1767    89.5413    2723(52)          2738.1279         2675.0403                                                                  
  1768    89.5913    2642(51)          2730.4546         2676.3149                                                                  
  1769    89.6413    2589(50)          2724.7900         2677.5898                                                                  
  1770    89.6913    2689(51)          2720.1421         2678.8645                                                                  
  1771    89.7413    2735(52)          2716.8052         2680.1394                                                                  
  1772    89.7913    2614(51)          2714.2351         2681.4143                                                                  
  1773    89.8413    2675(51)          2712.2725         2682.6890                                                                  
  1774    89.8913    2669(51)          2710.7966         2683.9639                                                                  
  1775    89.9413    2691(51)          2709.7161         2685.2385                                                                  
  1776    89.9913    2677(51)          2708.9595         2686.5134                                                                  
  1777    90.0413    2664(51)          2708.4712         2687.7883                                                                  
  1778    90.0913    2775(52)          2708.2065         2689.0630                                                                  
  1779    90.1413    2773(52)          2708.1304         2690.3379                                                                  
  1780    90.1913    2744(52)          2708.2136         2691.6125                                                                  
  1781    90.2413    2772(52)          2708.4333         2692.8875                                                                  
  1782    90.2913    2716(52)          2708.7703         2694.1624                                                                  
  1783    90.3413    2726(52)          2709.2083         2695.4370                                                                  
  1784    90.3913    2696(51)          2709.7344         2696.7119                                                                  
  1785    90.4413    2749(52)          2710.3376         2697.9866                                                                  
  1786    90.4913    2773(52)          2711.0088         2699.2615                                                                  
  1787    90.5413    2754(52)          2711.7397         2700.5364                                                                  
  1788    90.5913    2791(52)          2712.5242         2701.8110                                                                  
  1789    90.6413    2785(52)          2713.3564         2703.0859                                                                  
  1790    90.6913    2702(51)          2714.2314         2704.3606                                                                  
  1791    90.7413    2717(52)          2715.1455         2705.6355                                                                  
  1792    90.7913    2787(52)          2716.0947         2706.9104                                                                  
  1793    90.8413    2734(52)          2717.0762         2708.1851                                                                  
  1794    90.8913    2774(52)          2718.0876         2709.4600                                                                  
  1795    90.9413    2767(52)          2719.1262         2710.7346                                                                  
  1796    90.9913    2824(53)          2720.1909         2712.0095                                                                  
  1797    91.0413    2669(51)          2721.2795         2713.2844                                                                  
  1798    91.0913    2738(52)          2722.3911         2714.5591                                                                  
  1799    91.1413    2743(52)          2723.5247         2715.8340                                                                  
  1800    91.1913    2777(52)          2724.6792         2717.1089                                                                  
  1801    91.2413    2829(53)          2725.8538         2718.3835                                                                  
  1802    91.2913    2855(53)          2727.0488         2719.6584                                                                  
  1803    91.3413    2732(52)          2728.5613         2720.9331                                                                  
  1804    91.3913    2776(52)          2729.7988         2722.2080                                                                  
  1805    91.4413    2707(52)          2731.0566         2723.4829                                                                  
  1806    91.4913    2733(52)          2732.3350         2724.7576                                                                  
  1807    91.5413    2776(52)          2733.6348         2726.0325                                                                  
  1808    91.5913    2693(51)          2734.9568         2727.3071                                                                  
  1809    91.6413    2690(51)          2736.3025         2728.5820                                                                  
  1810    91.6913    2746(52)          2737.6736         2729.8569                                                                  
  1811    91.7413    2797(52)          2739.0715         2731.1318                                                                  
  1812    91.7913    2797(52)          2740.4988         2732.4065                                                                  
  1813    91.8413    2747(52)          2741.9585         2733.6814                                                                  
  1814    91.8913    2783(52)          2743.4541         2734.9561                                                                  
  1815    91.9413    2750(52)          2744.9900         2736.2310                                                                  
  1816    91.9913    2676(51)          2746.5713         2737.5059                                                                  
  1817    92.0413    2702(51)          2748.2041         2738.7805                                                                  
  1818    92.0913    2732(52)          2749.8962         2740.0554                                                                  
  1819    92.1413    2841(53)          2751.6567         2741.3301                                                                  
  1820    92.1913    2714(52)          2753.4976         2742.6050                                                                  
  1821    92.2413    2781(52)          2755.4329         2743.8799                                                                  
  1822    92.2913    2734(52)          2757.4807         2745.1548                                                                  
  1823    92.3413    2726(52)          2759.6628         2746.4294                                                                  
  1824    92.3913    2775(52)          2762.0088         2747.7043                                                                  
  1825    92.4413    2796(52)          2764.5547         2748.9790                                                                  
  1826    92.4913    2846(53)          2767.3499         2750.2539                                                                  
  1827    92.5413    2746(52)          2770.4573         2751.5288                                                                  
  1828    92.5913    2822(53)          2773.9636         2752.8035                                                                  
  1829    92.6413    2757(52)          2778.0002         2754.0784                                                                  
  1830    92.6913    2866(53)          2782.7986         2755.3530                                                                  
  1831    92.7413    3015(54)          2788.9109         2756.6279                                                                  
  1832    92.7913    3125(55)          2797.8875         2757.9028                                                                  
  1833    92.8413    3442(58)          2814.1096         2759.1775                                                                  
  1834    92.8913    3949(62)          2848.6936         2760.4524                                                                  
  1835    92.9413    4720(68)          2925.4028         2761.7271                                                                  
  1836    92.9913    5771(75)          3085.2371         2763.0020                                                                  
  1837    93.0413    6452(80)          3380.7998         2764.2769                                                                  
  1838    93.0913    7156(84)          3851.0308         2765.5515                                                                  
  1839    93.1413    7470(86)          4479.1504         2766.8264                                                                  
  1840    93.1913    7388(85)          5156.8945         2768.1011                                                                  
  1841    93.2413    6921(83)          5690.6841         2769.3760                                                                  
  1842    93.2913    6498(80)          5871.7988         2770.6509                                                                  
  1843    93.3413    5835(76)          5616.2793         2771.9255                                                                  
  1844    93.3913    5132(71)          5041.7207         2773.2004                                                                  
  1845    93.4413    4373(66)          4363.0991         2774.4751                                                                  
  1846    93.4913    3916(62)          3761.3240         2775.7500                                                                  
  1847    93.5413    3400(58)          3326.6548         2777.0249                                                                  
  1848    93.5913    3064(55)          3062.4277         2778.2996                                                                  
  1849    93.6413    2890(53)          2924.1733         2779.5745                                                                  
  1850    93.6913    2811(53)          2860.2490         2780.8491                                                                  
  1851    93.7413    2831(53)          2832.2754         2782.1240                                                                  
  1852    93.7913    2854(53)          2820.4409         2783.3989                                                                  
  1853    93.8413    2718(52)          2814.6921         2784.6736                                                                  
  1854    93.8913    2738(52)          2811.3843         2785.9485                                                                  
  1855    93.9413    2879(53)          2809.2427         2787.2231                                                                  
  1856    93.9913    2788(52)          2807.8054         2788.4980                                                                  
  1857    94.0413    2747(52)          2806.8674         2789.7729                                                                  
  1858    94.0913    2791(52)          2806.3091         2791.0476                                                                  
  1859    94.1413    2763(52)          2806.0481         2792.3225                                                                  
  1860    94.1913    2860(53)          2806.0239         2793.5972                                                                  
  1861    94.2413    2854(53)          2806.1907         2794.8721                                                                  
  1862    94.2913    2797(52)          2806.5129         2796.1470                                                                  
  1863    94.3413    2760(52)          2806.9629         2797.4216                                                                  
  1864    94.3913    2802(52)          2807.5190         2798.6965                                                                  
  1865    94.4413    2813(53)          2808.1641         2799.9712                                                                  
  1866    94.4913    2876(53)          2808.8838         2801.2461                                                                  
  1867    94.5413    2817(53)          2809.6672         2802.5210                                                                  
  1868    94.5913    2848(53)          2810.5049         2803.7957                                                                  
  1869    94.6413    2887(53)          2811.3894         2805.0706                                                                  
  1870    94.6913    2839(53)          2812.3142         2806.3452                                                                  
  1871    94.7413    2824(53)          2813.2739         2807.6201                                                                  
  1872    94.7913    2751(52)          2814.2646         2808.8950                                                                  
  1873    94.8413    2819(53)          2815.2817         2810.1697                                                                  
  1874    94.8913    2735(52)          2816.3230         2811.4446                                                                  
  1875    94.9413    2786(52)          2817.3848         2812.7192                                                                  
  1876    94.9913    2747(52)          2818.4656         2813.9941                                                                  
  1877    95.0413    2838(53)          2819.5630         2815.2690                                                                  
  1878    95.0913    2839(53)          2820.6748         2816.5437                                                                  
  1879    95.1413    2747(52)          2821.8003         2817.8186                                                                  
  1880    95.1913    2779(52)          2822.9377         2819.0933                                                                  
  1881    95.2413    2723(52)          2824.0862         2820.3682                                                                  
  1882    95.2913    2794(52)          2825.2444         2821.6431                                                                  
  1883    95.3413    2893(53)          2826.4114         2822.9177                                                                  
  1884    95.3913    2803(52)          2827.5869         2824.1926                                                                  
  1885    95.4413    2809(53)          2828.7695         2825.4673                                                                  
  1886    95.4913    2731(52)          2829.9592         2826.7422                                                                  
  1887    95.5413    2830(53)          2831.1553         2828.0171                                                                  
  1888    95.5913    2884(53)          2832.3569         2829.2917                                                                  
  1889    95.6413    2859(53)          2833.5640         2830.5667                                                                  
  1890    95.6913    2822(53)          2834.9761         2831.8413                                                                  
  1891    95.7413    2828(53)          2836.1948         2833.1162                                                                  
  1892    95.7913    2777(52)          2837.4177         2834.3911                                                                  
  1893    95.8413    2810(53)          2838.6445         2835.6658                                                                  
  1894    95.8913    2832(53)          2839.8752         2836.9407                                                                  
  1895    95.9413    2850(53)          2841.1091         2838.2153                                                                  
  1896    95.9913    2843(53)          2842.3469         2839.4902                                                                  
  1897    96.0413    2857(53)          2843.5876         2840.7651                                                                  
  1898    96.0913    2909(53)          2844.8311         2842.0398                                                                  
  1899    96.1413    2823(53)          2846.0776         2843.3147                                                                  
  1900    96.1913    2804(52)          2847.3264         2844.5894                                                                  
  1901    96.2413    2829(53)          2848.5781         2845.8643                                                                  
  1902    96.2913    2906(53)          2849.8323         2847.1392                                                                  
  1903    96.3413    2766(52)          2851.0886         2848.4138                                                                  
  1904    96.3913    2920(54)          2852.3472         2849.6887                                                                  
  1905    96.4413    2889(53)          2853.6077         2850.9634                                                                  
  1906    96.4913    2897(53)          2854.8706         2852.2383                                                                  
  1907    96.5413    2807(52)          2856.1355         2853.5132                                                                  
  1908    96.5913    2801(52)          2857.2029         2854.5886                                                                  
  1909    96.6413    2856(53)          2858.2344         2855.6262                                                                  
  1910    96.6913    2847(53)          2859.2676         2856.6638                                                                  
  1911    96.7413    2933(54)          2860.3025         2857.7014                                                                  
  1912    96.7913    2865(53)          2861.3394         2858.7390                                                                  
  1913    96.8413    2969(54)          2862.6267         2859.7764                                                                  
  1914    96.8913    2896(53)          2863.6699         2860.8142                                                                  
  1915    96.9413    2854(53)          2864.7141         2861.8516                                                                  
  1916    96.9913    2955(54)          2865.7603         2862.8892                                                                  
  1917    97.0413    2828(53)          2866.8083         2863.9268                                                                  
  1918    97.0913    2990(54)          2867.8579         2864.9644                                                                  
  1919    97.1413    2876(53)          2868.9092         2866.0020                                                                  
  1920    97.1913    2841(53)          2869.9622         2867.0396                                                                  
  1921    97.2413    2986(54)          2871.0168         2868.0771                                                                  
  1922    97.2913    2928(54)          2872.0732         2869.1147                                                                  
  1923    97.3413    2962(54)          2873.1311         2870.1523                                                                  
  1924    97.3913    2866(53)          2874.1909         2871.1899                                                                  
  1925    97.4413    2765(52)          2875.2524         2872.2273                                                                  
  1926    97.4913    2820(53)          2876.3157         2873.2649                                                                  
  1927    97.5413    2872(53)          2877.3811         2874.3027                                                                  
  1928    97.5913    2912(53)          2878.4480         2875.3401                                                                  
  1929    97.6413    2937(54)          2879.5168         2876.3777                                                                  
  1930    97.6913    2972(54)          2880.5876         2877.4153                                                                  
  1931    97.7413    2918(54)          2881.6604         2878.4529                                                                  
  1932    97.7913    2944(54)          2882.7354         2879.4905                                                                  
  1933    97.8413    2946(54)          2883.8123         2880.5281                                                                  
  1934    97.8913    2924(54)          2884.8914         2881.5657                                                                  
  1935    97.9413    2900(53)          2885.9724         2882.6030                                                                  
  1936    97.9913    2866(53)          2887.0562         2883.6409                                                                  
  1937    98.0413    2822(53)          2888.1421         2884.6785                                                                  
  1938    98.0913    2902(53)          2889.2302         2885.7158                                                                  
  1939    98.1413    2890(53)          2890.3213         2886.7534                                                                  
  1940    98.1913    2840(53)          2891.4150         2887.7910                                                                  
  1941    98.2413    2840(53)          2892.5115         2888.8286                                                                  
  1942    98.2913    2962(54)          2893.6106         2889.8662                                                                  
  1943    98.3413    2904(53)          2894.7131         2890.9038                                                                  
  1944    98.3913    2795(52)          2895.8186         2891.9414                                                                  
  1945    98.4413    2895(53)          2896.6848         2892.9788                                                                  
  1946    98.4913    2939(54)          2897.8000         2894.0166                                                                  
  1947    98.5413    2953(54)          2898.9185         2895.0542                                                                  
  1948    98.5913    3015(54)          2900.0403         2896.0916                                                                  
  1949    98.6413    2987(54)          2901.1665         2897.1292                                                                  
  1950    98.6913    2973(54)          2902.2966         2898.1667                                                                  
  1951    98.7413    2844(53)          2903.4314         2899.2043                                                                  
  1952    98.7913    3002(54)          2904.5710         2900.2419                                                                  
  1953    98.8413    2928(54)          2905.7153         2901.2795                                                                  
  1954    98.8913    2857(53)          2906.8650         2902.3171                                                                  
  1955    98.9413    2896(53)          2908.0203         2903.3547                                                                  
  1956    98.9913    2957(54)          2909.1814         2904.3923                                                                  
  1957    99.0413    2979(54)          2910.3489         2905.4299                                                                  
  1958    99.0913    2980(54)          2911.5227         2906.4673                                                                  
  1959    99.1413    2880(53)          2912.7041         2907.5051                                                                  
  1960    99.1913    2837(53)          2913.8928         2908.5425                                                                  
  1961    99.2413    2952(54)          2915.0898         2909.5801                                                                  
  1962    99.2913    2940(54)          2916.2957         2910.6177                                                                  
  1963    99.3413    3028(55)          2917.5107         2911.6553                                                                  
  1964    99.3913    3071(55)          2918.7358         2912.6929                                                                  
  1965    99.4413    2920(54)          2919.9717         2913.7305                                                                  
  1966    99.4913    2969(54)          2921.2190         2914.7681                                                                  
  1967    99.5413    2941(54)          2922.4790         2915.8057                                                                  
  1968    99.5913    2969(54)          2923.7527         2916.8433                                                                  
  1969    99.6413    2995(54)          2925.0408         2917.8809                                                                  
  1970    99.6913    2872(53)          2926.3445         2918.9182                                                                  
  1971    99.7413    2966(54)          2927.6658         2919.9558                                                                  
  1972    99.7913    3013(54)          2929.0059         2920.9937                                                                  
  1973    99.8413    3019(54)          2930.3660         2922.0310                                                                  
  1974    99.8913    2989(54)          2931.7485         2923.0686                                                                  
  1975    99.9413    2909(53)          2933.1555         2924.1062                                                                  
  1976    99.9913    2905(53)          2934.5894         2925.1438                                                                  
  1977   100.0413    2950(54)          2936.0955         2926.1814                                                                  
  1978   100.0913    2881(53)          2937.5913         2927.2190                                                                  
  1979   100.1413    3004(54)          2939.1233         2928.2566                                                                  
  1980   100.1913    2943(54)          2940.6943         2929.2939                                                                  
  1981   100.2413    2868(53)          2942.3098         2930.3315                                                                  
  1982   100.2913    2870(53)          2943.9744         2931.3694                                                                  
  1983   100.3413    2863(53)          2945.6934         2932.4067                                                                  
  1984   100.3913    2903(53)          2947.4741         2933.4443                                                                  
  1985   100.4413    2910(53)          2949.3237         2934.4819                                                                  
  1986   100.4913    2942(54)          2951.2515         2935.5195                                                                  
  1987   100.5413    2960(54)          2953.2676         2936.5571                                                                  
  1988   100.5913    2970(54)          2955.3838         2937.5947                                                                  
  1989   100.6413    2930(54)          2957.6150         2938.6323                                                                  
  1990   100.6913    2922(54)          2959.9775         2939.6697                                                                  
  1991   100.7413    2938(54)          2962.4924         2940.7075                                                                  
  1992   100.7913    2957(54)          2965.1829         2941.7451                                                                  
  1993   100.8413    2918(54)          2968.1030         2942.7825                                                                  
  1994   100.8913    3010(54)          2971.2393         2943.8201                                                                  
  1995   100.9413    2987(54)          2974.6589         2944.8577                                                                  
  1996   100.9913    2970(54)          2978.4158         2945.8953                                                                  
  1997   101.0413    2947(54)          2982.5762         2946.9329                                                                  
  1998   101.0913    3038(55)          2987.2227         2947.9705                                                                  
  1999   101.1413    2951(54)          2992.4624         2949.0081                                                                  
  2000   101.1913    3129(55)          2998.4307         2950.0454                                                                  
  2001   101.2413    3050(55)          3005.3118         2951.0833                                                                  
  2002   101.2913    3037(55)          3013.3655         2952.1208                                                                  
  2003   101.3413    3126(55)          3023.0283         2953.1582                                                                  
  2004   101.3913    3310(57)          3035.2092         2954.1960                                                                  
  2005   101.4413    3765(61)          3052.1104         2955.2334                                                                  
  2006   101.4913    4407(66)          3079.3269         2956.2710                                                                  
  2007   101.5413    5616(74)          3130.2344         2957.3086                                                                  
  2008   101.5913    7495(86)          3233.4695         2958.3462                                                                  
  2009   101.6413    9768(98)          3442.1614         2959.3838                                                                  
  2010   101.6913    12728(112)          3838.4148         2960.4214                                                                
  2011   101.7413    15455(124)          4522.2646         2961.4590                                                                
  2012   101.7913    17384(131)          5573.1973         2962.4966                                                                
  2013   101.8413    18336(135)          6988.1191         2963.5339                                                                
  2014   101.8913    18403(135)          8622.7764         2964.5718                                                                
  2015   101.9413    17454(132)         10173.1543         2965.6091                                                                
  2016   101.9913    16069(126)         11233.0674         2966.6467                                                                
  2017   102.0413    14462(120)         11446.6992         2967.6846                                                                
  2018   102.0913    12566(112)         10733.4492         2968.7219                                                                
  2019   102.1413    10369(101)          9351.4883         2969.7595                                                                
  2020   102.1913    8208(90)          7710.8057         2970.7971                                                                  
  2021   102.2413    6195(78)          6172.4414         2971.8347                                                                  
  2022   102.2913    4910(70)          4953.8203         2972.8723                                                                  
  2023   102.3413    4151(64)          4115.3267         2973.9099                                                                  
  2024   102.3913    3616(60)          3605.4888         2974.9475                                                                  
  2025   102.4413    3358(57)          3327.2041         2975.9849                                                                  
  2026   102.4913    3282(57)          3187.4790         2977.0225                                                                  
  2027   102.5413    3075(55)          3120.2397         2978.0603                                                                  
  2028   102.5913    3114(55)          3087.0210         2979.0977                                                                  
  2029   102.6413    3035(55)          3068.7327         2980.1353                                                                  
  2030   102.6913    3097(55)          3057.0479         2981.1729                                                                  
  2031   102.7413    3202(56)          3048.5134         2982.2104                                                                  
  2032   102.7913    3141(56)          3042.0122         2983.2480                                                                  
  2033   102.8413    3078(55)          3036.8501         2984.2856                                                                  
  2034   102.8913    3087(55)          3032.7048         2985.3232                                                                  
  2035   102.9413    3066(55)          3029.3669         2986.3606                                                                  
  2036   102.9913    2996(54)          3026.6816         2987.3984                                                                  
  2037   103.0413    3034(55)          3024.5303         2988.4360                                                                  
  2038   103.0913    3039(55)          3022.8215         2989.4734                                                                  
  2039   103.1413    3028(55)          3021.4819         2990.5110                                                                  
  2040   103.1913    3082(55)          3020.4531         2991.5486                                                                  
  2041   103.2413    3110(55)          3019.6877         2992.5862                                                                  
  2042   103.2913    3146(56)          3019.1479         2993.6238                                                                  
  2043   103.3413    3053(55)          3018.8022         2994.6614                                                                  
  2044   103.3913    3013(54)          3018.6250         2995.6990                                                                  
  2045   103.4413    3052(55)          3018.5945         2996.7363                                                                  
  2046   103.4913    3010(54)          3018.6936         2997.7742                                                                  
  2047   103.5413    2941(54)          3018.9070         2998.8118                                                                  
  2048   103.5913    3059(55)          3019.2222         2999.8491                                                                  
  2049   103.6413    3016(54)          3019.6292         3000.8867                                                                  
  2050   103.6913    3033(55)          3020.1189         3001.9243                                                                  
  2051   103.7413    2992(54)          3020.6841         3002.9619                                                                  
  2052   103.7913    3090(55)          3021.3181         3003.9995                                                                  
  2053   103.8413    2970(54)          3022.0164         3005.0371                                                                  
  2054   103.8913    2959(54)          3022.7742         3006.0747                                                                  
  2055   103.9413    3023(54)          3023.5884         3007.1123                                                                  
  2056   103.9913    3065(55)          3024.4556         3008.1499                                                                  
  2057   104.0413    3112(55)          3025.3738         3009.1875                                                                  
  2058   104.0913    3193(56)          3026.3411         3010.2249                                                                  
  2059   104.1413    3076(55)          3027.3569         3011.2627                                                                  
  2060   104.1913    3068(55)          3028.4197         3012.3000                                                                  
  2061   104.2413    3113(55)          3029.5303         3013.3376                                                                  
  2062   104.2913    3166(56)          3030.6880         3014.3752                                                                  
  2063   104.3413    3116(55)          3031.8943         3015.4128                                                                  
  2064   104.3913    3205(56)          3033.1499         3016.4504                                                                  
  2065   104.4413    3147(56)          3034.4565         3017.4880                                                                  
  2066   104.4913    3158(56)          3035.8167         3018.5256                                                                  
  2067   104.5413    3170(56)          3037.2329         3019.5632                                                                  
  2068   104.5913    3156(56)          3038.7087         3020.6008                                                                  
  2069   104.6413    3091(55)          3040.2483         3021.6384                                                                  
  2070   104.6913    3184(56)          3041.8562         3022.6758                                                                  
  2071   104.7413    3122(55)          3043.5388         3023.7134                                                                  
  2072   104.7913    3145(56)          3045.3032         3024.7512                                                                  
  2073   104.8413    3140(56)          3047.1560         3025.7886                                                                  
  2074   104.8913    3112(55)          3049.1082         3026.8262                                                                  
  2075   104.9413    3141(56)          3051.1699         3027.8638                                                                  
  2076   104.9913    3219(56)          3053.3550         3028.9014                                                                  
  2077   105.0413    3172(56)          3055.6782         3029.9390                                                                  
  2078   105.0913    3114(55)          3058.1577         3030.9766                                                                  
  2079   105.1413    3061(55)          3060.8159         3032.0142                                                                  
  2080   105.1913    3129(55)          3063.6777         3033.0515                                                                  
  2081   105.2413    3174(56)          3066.7756         3034.0894                                                                  
  2082   105.2913    3088(55)          3070.3403         3035.1270                                                                  
  2083   105.3413    3088(55)          3074.0305         3036.1643                                                                  
  2084   105.3913    3225(56)          3078.0955         3037.2019                                                                  
  2085   105.4413    3119(55)          3082.6028         3038.2395                                                                  
  2086   105.4913    3152(56)          3087.6392         3039.2771                                                                  
  2087   105.5413    3141(56)          3093.3113         3040.3147                                                                  
  2088   105.5913    3129(55)          3099.7539         3041.3523                                                                  
  2089   105.6413    3230(56)          3107.1433         3042.3899                                                                  
  2090   105.6913    3236(56)          3115.7056         3043.4272                                                                  
  2091   105.7413    3331(57)          3125.7549         3044.4651                                                                  
  2092   105.7913    3499(59)          3137.7529         3045.5027                                                                  
  2093   105.8413    3860(62)          3152.5059         3046.5400                                                                  
  2094   105.8913    4282(65)          3171.7317         3047.5776                                                                  
  2095   105.9413    5165(71)          3199.5637         3048.6152                                                                  
  2096   105.9913    6605(81)          3246.2368         3049.6528                                                                  
  2097   106.0413    8730(93)          3335.5679         3050.6904                                                                  
  2098   106.0913    11796(108)          3517.1970         3051.7280                                                                
  2099   106.1413    15045(122)          3880.4106         3052.7656                                                                
  2100   106.1913    18175(134)          4556.7930         3053.8032                                                                
  2101   106.2413    20139(141)          5692.0596         3054.8408                                                                
  2102   106.2913    21365(146)          7369.6094         3055.8784                                                                
  2103   106.3413    20949(144)          9503.4932         3056.9158                                                                
  2104   106.3913    20139(141)         11760.1289         3057.9536                                                                
  2105   106.4413    19029(137)         13573.1084         3058.9910                                                                
  2106   106.4913    17286(131)         14318.3945         3060.0286                                                                
  2107   106.5413    15292(123)         13683.1885         3061.0662                                                                
  2108   106.5913    12828(113)         11937.2021         3062.1038                                                                
  2109   106.6413    10363(101)          9695.1123         3063.1414                                                                
  2110   106.6913    8226(90)          7537.1963         3064.1790                                                                  
  2111   106.7413    6280(79)          5818.2358         3065.2166                                                                  
  2112   106.7913    4977(70)          4642.3633         3066.2542                                                                  
  2113   106.8413    4180(64)          3935.8518         3067.2915                                                                  
  2114   106.8913    3629(60)          3554.5483         3068.3293                                                                  
  2115   106.9413    3521(59)          3364.0923         3069.3667                                                                  
  2116   106.9913    3464(58)          3271.5654         3070.4043                                                                  
  2117   107.0413    3314(57)          3224.5811         3071.4419                                                                  
  2118   107.0913    3203(56)          3197.7336         3072.4795                                                                  
  2119   107.1413    3169(56)          3180.0249         3073.5171                                                                  
  2120   107.1913    3243(56)          3167.0032         3074.5547                                                                  
  2121   107.2413    3194(56)          3156.8286         3075.5923                                                                  
  2122   107.2913    3282(57)          3148.6501         3076.6299                                                                  
  2123   107.3413    3143(56)          3141.9873         3077.6675                                                                  
  2124   107.3913    3129(55)          3136.5176         3078.7051                                                                  
  2125   107.4413    3146(56)          3132.0085         3079.7424                                                                  
  2126   107.4913    3188(56)          3128.2810         3080.7800                                                                  
  2127   107.5413    3216(56)          3125.1970         3081.8179                                                                  
  2128   107.5913    3245(56)          3122.6467         3082.8552                                                                  
  2129   107.6413    3174(56)          3120.5427         3083.8928                                                                  
  2130   107.6913    3200(56)          3118.8157         3084.9304                                                                  
  2131   107.7413    3189(56)          3117.4075         3085.9680                                                                  
  2132   107.7913    3128(55)          3116.2722         3087.0056                                                                  
  2133   107.8413    3232(56)          3115.3718         3088.0432                                                                  
  2134   107.8913    3236(56)          3114.6738         3089.0808                                                                  
  2135   107.9413    3232(56)          3114.1521         3090.1182                                                                  
  2136   107.9913    3215(56)          3113.7842         3091.1560                                                                  
  2137   108.0413    3055(55)          3113.5510         3092.1936                                                                  
  2138   108.0913    3119(55)          3113.4368         3093.2310                                                                  
  2139   108.1413    3130(55)          3113.4280         3094.2686                                                                  
  2140   108.1913    3204(56)          3113.5127         3095.3062                                                                  
  2141   108.2413    3147(56)          3113.6812         3096.3438                                                                  
  2142   108.2913    3177(56)          3113.9241         3097.3813                                                                  
  2143   108.3413    3170(56)          3114.2349         3098.4189                                                                  
  2144   108.3913    3088(55)          3114.6062         3099.4565                                                                  
  2145   108.4413    3186(56)          3115.0327         3100.4941                                                                  
  2146   108.4913    3256(57)          3115.5093         3101.5317                                                                  
  2147   108.5413    3182(56)          3116.0320         3102.5693                                                                  
  2148   108.5913    3119(55)          3116.5964         3103.6067                                                                  
  2149   108.6413    3141(56)          3117.2002         3104.6445                                                                  
  2150   108.6913    3213(56)          3117.8394         3105.6819                                                                  
  2151   108.7413    3152(56)          3118.5122         3106.7195                                                                  
  2152   108.7913    3084(55)          3119.2163         3107.7571                                                                  
  2153   108.8413    3181(56)          3121.0500         3108.7947                                                                  
  2154   108.8913    3196(56)          3121.8203         3109.8323                                                                  
  2155   108.9413    3128(55)          3122.6172         3110.8699                                                                  
  2156   108.9913    3154(56)          3123.4392         3111.9075                                                                  
  2157   109.0413    3220(56)          3124.2856         3112.9451                                                                  
  2158   109.0913    3259(57)          3125.1555         3113.9824                                                                  
  2159   109.1413    3198(56)          3126.0491         3115.0203                                                                  
  2160   109.1913    3222(56)          3126.9648         3116.0576                                                                  
  2161   109.2413    3210(56)          3127.9038         3117.0952                                                                  
  2162   109.2913    3133(55)          3128.8655         3118.1328                                                                  
  2163   109.3413    3358(57)          3129.8506         3119.1704                                                                  
  2164   109.3913    3158(56)          3130.8594         3120.2080                                                                  
  2165   109.4413    3180(56)          3131.8931         3121.2456                                                                  
  2166   109.4913    3209(56)          3132.9526         3122.2832                                                                  
  2167   109.5413    3205(56)          3134.0396         3123.3208                                                                  
  2168   109.5913    3223(56)          3135.1560         3124.3584                                                                  
  2169   109.6413    3248(56)          3136.3042         3125.3960                                                                  
  2170   109.6913    3205(56)          3137.4868         3126.4333                                                                  
  2171   109.7413    3121(55)          3138.7080         3127.4709                                                                  
  2172   109.7913    3197(56)          3139.9724         3128.5088                                                                  
  2173   109.8413    3299(57)          3141.2847         3129.5461                                                                  
  2174   109.8913    3231(56)          3142.6519         3130.5837                                                                  
  2175   109.9413    3174(56)          3144.0825         3131.6213                                                                  
  2176   109.9913    3184(56)          3145.5864         3132.6589                                                                  
  2177   110.0413    3229(56)          3147.1765         3133.6965                                                                  
  2178   110.0913    3217(56)          3148.8684         3134.7341                                                                  
  2179   110.1413    3331(57)          3150.6826         3135.7717                                                                  
  2180   110.1913    3283(57)          3152.6440         3136.8091                                                                  
  2181   110.2413    3301(57)          3154.7869         3137.8467                                                                  
  2182   110.2913    3256(57)          3157.1570         3138.8845                                                                  
  2183   110.3413    3387(58)          3159.8206         3139.9219                                                                  
  2184   110.3913    3473(58)          3162.8970         3140.9595                                                                  
  2185   110.4413    3597(59)          3166.6343         3141.9971                                                                  
  2186   110.4913    3807(61)          3171.6265         3143.0347                                                                  
  2187   110.5413    4270(65)          3179.3030         3144.0723                                                                  
  2188   110.5913    4680(68)          3192.8958         3145.1099                                                                  
  2189   110.6413    5272(72)          3218.9524         3146.1475                                                                  
  2190   110.6913    5961(77)          3268.9172         3147.1851                                                                  
  2191   110.7413    6672(81)          3359.4736         3148.2227                                                                  
  2192   110.7913    7164(84)          3509.2913         3149.2603                                                                  
  2193   110.8413    7469(86)          3730.6602         3150.2976                                                                  
  2194   110.8913    7536(86)          4017.5818         3151.3354                                                                  
  2195   110.9413    7232(85)          4335.3994         3152.3728                                                                  
  2196   110.9913    6892(83)          4620.0303         3153.4104                                                                  
  2197   111.0413    6696(81)          4791.1260         3154.4480                                                                  
  2198   111.0913    6440(80)          4787.4946         3155.4856                                                                  
  2199   111.1413    5887(76)          4610.9688         3156.5232                                                                  
  2200   111.1913    5406(73)          4324.9019         3157.5605                                                                  
  2201   111.2413    4809(69)          4009.3223         3158.5984                                                                  
  2202   111.2913    4392(66)          3727.1545         3159.6360                                                                  
  2203   111.3413    3891(62)          3511.4585         3160.6733                                                                  
  2204   111.3913    3745(61)          3367.0312         3161.7112                                                                  
  2205   111.4413    3435(58)          3281.0022         3162.7485                                                                  
  2206   111.4913    3368(58)          3234.6191         3163.7861                                                                  
  2207   111.5413    3367(58)          3211.4507         3164.8237                                                                  
  2208   111.5913    3348(57)          3200.3137         3165.8613                                                                  
  2209   111.6413    3440(58)          3194.8667         3166.8989                                                                  
  2210   111.6913    3300(57)          3191.9998         3167.9365                                                                  
  2211   111.7413    3389(58)          3190.3418         3168.9741                                                                  
  2212   111.7913    3433(58)          3189.3262         3170.0117                                                                  
  2213   111.8413    3347(57)          3188.7139         3171.0493                                                                  
  2214   111.8913    3342(57)          3188.3899         3172.0869                                                                  
  2215   111.9413    3297(57)          3188.2886         3173.1243                                                                  
  2216   111.9913    3271(57)          3188.3647         3174.1619                                                                  
  2217   112.0413    3364(58)          3188.5859         3175.1997                                                                  
  2218   112.0913    3328(57)          3188.9255         3176.2371                                                                  
  2219   112.1413    3343(57)          3189.3645         3177.2747                                                                  
  2220   112.1913    3220(56)          3189.8865         3178.3123                                                                  
  2221   112.2413    3234(56)          3190.4788         3179.3499                                                                  
  2222   112.2913    3227(56)          3191.1311         3180.3875                                                                  
  2223   112.3413    3283(57)          3191.8354         3181.4250                                                                  
  2224   112.3913    3286(57)          3192.5845         3182.4626                                                                  
  2225   112.4413    3192(56)          3193.3728         3183.5000                                                                  
  2226   112.4913    3364(58)          3194.1958         3184.5376                                                                  
  2227   112.5413    3228(56)          3195.0500         3185.5754                                                                  
  2228   112.5913    3157(56)          3195.9314         3186.6128                                                                  
  2229   112.6413    3240(56)          3196.8376         3187.6504                                                                  
  2230   112.6913    3348(57)          3197.7666         3188.6880                                                                  
  2231   112.7413    3354(57)          3198.7163         3189.7256                                                                  
  2232   112.7913    3293(57)          3199.3918         3190.7632                                                                  
  2233   112.8413    3221(56)          3200.3811         3191.8008                                                                  
  2234   112.8913    3166(56)          3201.3870         3192.8384                                                                  
  2235   112.9413    3190(56)          3202.4087         3193.8757                                                                  
  2236   112.9913    3267(57)          3203.4458         3194.9136                                                                  
  2237   113.0413    3251(57)          3204.4973         3195.9512                                                                  
  2238   113.0913    3152(56)          3205.5625         3196.9885                                                                  
  2239   113.1413    3204(56)          3206.6421         3198.0261                                                                  
  2240   113.1913    3247(56)          3207.7354         3199.0637                                                                  
  2241   113.2413    3273(57)          3208.8423         3200.1013                                                                  
  2242   113.2913    3221(56)          3209.9631         3201.1389                                                                  
  2243   113.3413    3136(56)          3211.0979         3202.1765                                                                  
  2244   113.3913    3230(56)          3212.2468         3203.2141                                                                  
  2245   113.4413    3195(56)          3213.8125         3204.2515                                                                  
  2246   113.4913    3305(57)          3214.9949         3205.2893                                                                  
  2247   113.5413    3332(57)          3216.1931         3206.3269                                                                  
  2248   113.5913    3210(56)          3217.4077         3207.3643                                                                  
  2249   113.6413    3358(57)          3218.6404         3208.4019                                                                  
  2250   113.6913    3217(56)          3219.8916         3209.4395                                                                  
  2251   113.7413    3223(56)          3221.1631         3210.4771                                                                  
  2252   113.7913    3121(55)          3222.4563         3211.5146                                                                  
  2253   113.8413    3290(57)          3223.7727         3212.5522                                                                  
  2254   113.8913    3335(57)          3225.1143         3213.5898                                                                  
  2255   113.9413    3312(57)          3226.4836         3214.6274                                                                  
  2256   113.9913    3240(56)          3227.8831         3215.6650                                                                  
  2257   114.0413    3314(57)          3229.3157         3216.7026                                                                  
  2258   114.0913    3277(57)          3230.7849         3217.7402                                                                  
  2259   114.1413    3284(57)          3232.2952         3218.7778                                                                  
  2260   114.1913    3254(57)          3233.8503         3219.8152                                                                  
  2261   114.2413    3215(56)          3235.4570         3220.8528                                                                  
  2262   114.2913    3309(57)          3237.1211         3221.8906                                                                  
  2263   114.3413    3291(57)          3238.8494         3222.9280                                                                  
  2264   114.3913    3235(56)          3240.6514         3223.9656                                                                  
  2265   114.4413    3233(56)          3242.5376         3225.0032                                                                  
  2266   114.4913    3385(58)          3244.5205         3226.0408                                                                  
  2267   114.5413    3313(57)          3246.6150         3227.0784                                                                  
  2268   114.5913    3213(56)          3248.8386         3228.1160                                                                  
  2269   114.6413    3263(57)          3251.2141         3229.1536                                                                  
  2270   114.6913    3347(57)          3253.7671         3230.1909                                                                  
  2271   114.7413    3295(57)          3256.5320         3231.2285                                                                  
  2272   114.7913    3312(57)          3259.5493         3232.2664                                                                  
  2273   114.8413    3344(57)          3262.8699         3233.3037                                                                  
  2274   114.8913    3355(57)          3266.5603         3234.3413                                                                  
  2275   114.9413    3358(57)          3270.7039         3235.3789                                                                  
  2276   114.9913    3428(58)          3275.4116         3236.4165                                                                  
  2277   115.0413    3486(59)          3280.8340         3237.4541                                                                  
  2278   115.0913    3712(60)          3287.1970         3238.4917                                                                  
  2279   115.1413    4107(64)          3294.9089         3239.5293                                                                  
  2280   115.1913    4640(68)          3304.8577         3240.5667                                                                  
  2281   115.2413    5511(74)          3319.2261         3241.6045                                                                  
  2282   115.2913    6476(80)          3343.3191         3242.6421                                                                  
  2283   115.3413    7930(89)          3388.9834         3243.6794                                                                  
  2284   115.3913    9020(94)          3479.4036         3244.7170                                                                  
  2285   115.4413    10427(102)          3652.6960         3245.7546                                                                
  2286   115.4913    11053(105)          3959.0588         3246.7922                                                                
  2287   115.5413    10920(104)          4444.4624         3247.8298                                                                
  2288   115.5913    10734(103)          5120.2549         3248.8674                                                                
  2289   115.6413    10133(100)          5929.9482         3249.9050                                                                
  2290   115.6913    9616(98)          6731.3906         3250.9424                                                                  
  2291   115.7413    9128(95)          7314.6323         3251.9802                                                                  
  2292   115.7913    8480(92)          7474.3086         3253.0178                                                                  
  2293   115.8413    7804(88)          7144.8467         3254.0552                                                                  
  2294   115.8913    7029(83)          6458.0000         3255.0928                                                                  
  2295   115.9413    6086(78)          5634.3320         3256.1304                                                                  
  2296   115.9913    5193(72)          4863.7583         3257.1680                                                                  
  2297   116.0413    4547(67)          4257.1807         3258.2056                                                                  
  2298   116.0913    4071(63)          3843.2473         3259.2432                                                                  
  2299   116.1413    3746(61)          3593.6995         3260.2808                                                                  
  2300   116.1913    3505(59)          3458.0159         3261.3184                                                                  
  2301   116.2413    3464(58)          3389.8083         3262.3560                                                                  
  2302   116.2913    3459(58)          3356.3071         3263.3936                                                                  
  2303   116.3413    3462(58)          3339.0315         3264.4309                                                                  
  2304   116.3913    3461(58)          3329.0098         3265.4688                                                                  
  2305   116.4413    3404(58)          3322.3816         3266.5061                                                                  
  2306   116.4913    3354(57)          3317.5803         3267.5437                                                                  
  2307   116.5413    3443(58)          3313.9507         3268.5815                                                                  
  2308   116.5913    3350(57)          3311.1724         3269.6189                                                                  
  2309   116.6413    3444(58)          3309.0530         3270.6565                                                                  
  2310   116.6913    3387(58)          3307.4597         3271.6941                                                                  
  2311   116.7413    3431(58)          3306.2927         3272.7317                                                                  
  2312   116.7913    3413(58)          3305.4766         3273.7693                                                                  
  2313   116.8413    3391(58)          3304.9514         3274.8066                                                                  
  2314   116.8913    3455(58)          3304.6711         3275.8445                                                                  
  2315   116.9413    3408(58)          3304.5974         3276.8818                                                                  
  2316   116.9913    3399(58)          3304.7007         3277.9194                                                                  
  2317   117.0413    3497(59)          3304.9568         3278.9570                                                                  
  2318   117.0913    3469(58)          3305.3462         3279.9946                                                                  
  2319   117.1413    3445(58)          3305.8525         3281.0322                                                                  
  2320   117.1913    3249(57)          3306.4626         3282.0698                                                                  
  2321   117.2413    3414(58)          3307.1658         3283.1074                                                                  
  2322   117.2913    3325(57)          3307.9529         3284.1450                                                                  
  2323   117.3413    3367(58)          3308.8164         3285.1826                                                                  
  2324   117.3913    3413(58)          3309.5537         3286.2202                                                                  
  2325   117.4413    3508(59)          3310.5549         3287.2576                                                                  
  2326   117.4913    3338(57)          3311.6182         3288.2954                                                                  
  2327   117.5413    3308(57)          3312.7395         3289.3330                                                                  
  2328   117.5913    3372(58)          3313.9165         3290.3704                                                                  
  2329   117.6413    3455(58)          3315.1477         3291.4080                                                                  
  2330   117.6913    3369(58)          3316.4314         3292.4456                                                                  
  2331   117.7413    3405(58)          3317.7671         3293.4832                                                                  
  2332   117.7913    3315(57)          3319.1543         3294.5208                                                                  
  2333   117.8413    3356(57)          3320.5930         3295.5583                                                                  
  2334   117.8913    3330(57)          3322.0837         3296.5959                                                                  
  2335   117.9413    3392(58)          3323.6274         3297.6333                                                                  
  2336   117.9913    3283(57)          3325.2261         3298.6711                                                                  
  2337   118.0413    3324(57)          3326.8806         3299.7087                                                                  
  2338   118.0913    3438(58)          3328.5930         3300.7461                                                                  
  2339   118.1413    3313(57)          3330.3669         3301.7837                                                                  
  2340   118.1913    3253(57)          3332.2043         3302.8213                                                                  
  2341   118.2413    3358(57)          3334.1096         3303.8589                                                                  
  2342   118.2913    3437(58)          3336.0862         3304.8965                                                                  
  2343   118.3413    3392(58)          3338.1392         3305.9341                                                                  
  2344   118.3913    3379(58)          3340.2737         3306.9717                                                                  
  2345   118.4413    3373(58)          3342.4956         3308.0093                                                                  
  2346   118.4913    3436(58)          3344.8120         3309.0469                                                                  
  2347   118.5413    3337(57)          3347.2305         3310.0845                                                                  
  2348   118.5913    3429(58)          3349.7590         3311.1218                                                                  
  2349   118.6413    3364(58)          3352.4089         3312.1597                                                                  
  2350   118.6913    3303(57)          3355.1897         3313.1970                                                                  
  2351   118.7413    3369(58)          3358.1150         3314.2346                                                                  
  2352   118.7913    3466(58)          3361.1990         3315.2722                                                                  
  2353   118.8413    3345(57)          3364.4573         3316.3098                                                                  
  2354   118.8913    3375(58)          3367.9092         3317.3474                                                                  
  2355   118.9413    3445(58)          3371.5752         3318.3850                                                                  
  2356   118.9913    3508(59)          3375.4805         3319.4226                                                                  
  2357   119.0413    3436(58)          3379.7029         3320.4602                                                                  
  2358   119.0913    3277(57)          3384.1741         3321.4976                                                                  
  2359   119.1413    3309(57)          3388.9832         3322.5354                                                                  
  2360   119.1913    3356(57)          3394.1714         3323.5728                                                                  
  2361   119.2413    3420(58)          3399.7925         3324.6104                                                                  
  2362   119.2913    3370(58)          3405.9050         3325.6479                                                                  
  2363   119.3413    3427(58)          3412.5796         3326.6855                                                                  
  2364   119.3913    3418(58)          3419.9021         3327.7231                                                                  
  2365   119.4413    3338(57)          3427.9709         3328.7607                                                                  
  2366   119.4913    3412(58)          3436.9094         3329.7983                                                                  
  2367   119.5413    3580(59)          3446.8625         3330.8359                                                                  
  2368   119.5913    3531(59)          3458.0068         3331.8735                                                                  
  2369   119.6413    3526(59)          3470.5637         3332.9111                                                                  
  2370   119.6913    3599(59)          3484.8003         3333.9485                                                                  
  2371   119.7413    3840(61)          3501.0596         3334.9863                                                                  
  2372   119.7913    4035(63)          3519.7690         3336.0239                                                                  
  2373   119.8413    4341(65)          3541.4902         3337.0613                                                                  
  2374   119.8913    4835(69)          3567.0205         3338.0989                                                                  
  2375   119.9413    5854(76)          3597.6045         3339.1365                                                                  
  2376   119.9913    7269(85)          3635.5884         3340.1741                                                                  
  2377   120.0413    9617(98)          3685.9534         3341.2117                                                                  
  2378   120.0913    13349(115)          3759.8779         3342.2493                                                                
  2379   120.1413    18318(135)          3881.8577         3343.2869                                                                
  2380   120.1913    24331(155)          4101.4575         3344.3242                                                                
  2381   120.2413    31465(177)          4509.1187         3345.3618                                                                
  2382   120.2913    37468(193)          5248.9819         3346.3997                                                                
  2383   120.3413    41706(204)          6515.4170         3347.4370                                                                
  2384   120.3913    44272(210)          8516.4814         3348.4746                                                                
  2385   120.4413    43985(209)         11391.0664         3349.5122                                                                
  2386   120.4913    42084(205)         15100.3662         3350.5498                                                                
  2387   120.5413    39377(198)         19327.2305         3351.5874                                                                
  2388   120.5913    37380(193)         23445.2285         3352.6250                                                                
  2389   120.6413    35066(187)         26593.6738         3353.6626                                                                
  2390   120.6913    32410(180)         27909.1289         3354.7002                                                                
  2391   120.7413    29793(172)         26963.8535         3355.7378                                                                
  2392   120.7913    25615(160)         24070.2832         3356.7754                                                                
  2393   120.8413    21172(145)         20052.8379         3357.8127                                                                
  2394   120.8913    16836(129)         15794.6025         3358.8506                                                                
  2395   120.9413    12724(112)         11970.5850         3359.8879                                                                
  2396   120.9913    9639(98)          8948.4102         3360.9255                                                                  
  2397   121.0413    7435(86)          6809.2324         3361.9631                                                                  
  2398   121.0913    5990(77)          5435.6660         3363.0007                                                                  
  2399   121.1413    5086(71)          4624.2266         3364.0383                                                                  
  2400   121.1913    4504(67)          4174.6519         3365.0759                                                                  
  2401   121.2413    4289(65)          3933.2556         3366.1135                                                                  
  2402   121.2913    4154(64)          3801.3958         3367.1511                                                                  
  2403   121.3413    3967(62)          3723.7388         3368.1885                                                                  
  2404   121.3913    3688(60)          3672.5845         3369.2261                                                                  
  2405   121.4413    3498(59)          3635.1216         3370.2637                                                                  
  2406   121.4913    3480(58)          3605.6353         3371.3013                                                                  
  2407   121.5413    3489(59)          3581.4988         3372.3389                                                                  
  2408   121.5913    3551(59)          3561.3401         3373.3765                                                                  
  2409   121.6413    3512(59)          3544.3071         3374.4141                                                                  
  2410   121.6913    3539(59)          3529.8118         3375.4517                                                                  
  2411   121.7413    3477(58)          3517.4006         3376.4893                                                                  
  2412   121.7913    3428(58)          3506.7241         3377.5269                                                                  
  2413   121.8413    3427(58)          3497.5034         3378.5645                                                                  
  2414   121.8913    3475(58)          3489.5088         3379.6021                                                                  
  2415   121.9413    3483(59)          3482.5588         3380.6394                                                                  
  2416   121.9913    3441(58)          3476.5012         3381.6772                                                                  
  2417   122.0413    3432(58)          3471.2114         3382.7148                                                                  
  2418   122.0913    3375(58)          3466.5869         3383.7522                                                                  
  2419   122.1413    3358(57)          3462.4971         3384.7898                                                                  
  2420   122.1913    3321(57)          3458.9561         3385.8274                                                                  
  2421   122.2413    3408(58)          3455.8577         3386.8650                                                                  
  2422   122.2913    3411(58)          3453.1506         3387.9026                                                                  
  2423   122.3413    3429(58)          3450.7903         3388.9402                                                                  
  2424   122.3913    3412(58)          3448.7375         3389.9778                                                                  
  2425   122.4413    3435(58)          3446.9602         3391.0151                                                                  
  2426   122.4913    3482(59)          3445.4290         3392.0527                                                                  
  2427   122.5413    3451(58)          3444.1199         3393.0906                                                                  
  2428   122.5913    3388(58)          3443.0110         3394.1279                                                                  
  2429   122.6413    3434(58)          3442.0837         3395.1655                                                                  
  2430   122.6913    3432(58)          3441.3215         3396.2031                                                                  
  2431   122.7413    3531(59)          3440.7102         3397.2407                                                                  
  2432   122.7913    3493(59)          3440.2371         3398.2783                                                                  
  2433   122.8413    3407(58)          3439.8914         3399.3159                                                                  
  2434   122.8913    3438(58)          3439.6628         3400.3535                                                                  
  2435   122.9413    3444(58)          3439.5435         3401.3911                                                                  
  2436   122.9913    3512(59)          3439.5256         3402.4287                                                                  
  2437   123.0413    3360(57)          3439.6028         3403.4663                                                                  
  2438   123.0913    3402(58)          3439.7690         3404.5037                                                                  
  2439   123.1413    3501(59)          3440.0198         3405.5415                                                                  
  2440   123.1913    3397(58)          3440.3503         3406.5789                                                                  
  2441   123.2413    3328(57)          3440.7576         3407.6165                                                                  
  2442   123.2913    3481(59)          3441.2380         3408.6541                                                                  
  2443   123.3413    3429(58)          3441.7896         3409.6917                                                                  
  2444   123.3913    3346(57)          3442.4097         3410.7292                                                                  
  2445   123.4413    3522(59)          3443.0969         3411.7666                                                                  
  2446   123.4913    3335(57)          3443.8508         3412.8044                                                                  
  2447   123.5413    3343(57)          3444.6704         3413.8420                                                                  
  2448   123.5913    3541(59)          3445.5554         3414.8794                                                                  
  2449   123.6413    3447(58)          3446.5066         3415.9170                                                                  
  2450   123.6913    3472(58)          3447.5249         3416.9546                                                                  
  2451   123.7413    3466(58)          3448.6116         3417.9922                                                                  
  2452   123.7913    3420(58)          3449.7688         3419.0298                                                                  
  2453   123.8413    3471(58)          3450.9993         3420.0674                                                                  
  2454   123.8913    3388(58)          3452.3059         3421.1050                                                                  
  2455   123.9413    3402(58)          3453.6929         3422.1426                                                                  
  2456   123.9913    3402(58)          3455.1650         3423.1802                                                                  
  2457   124.0413    3537(59)          3456.7285         3424.2178                                                                  
  2458   124.0913    3514(59)          3458.3894         3425.2554                                                                  
  2459   124.1413    3326(57)          3460.1562         3426.2930                                                                  
  2460   124.1913    3410(58)          3462.0381         3427.3303                                                                  
  2461   124.2413    3405(58)          3464.0466         3428.3679                                                                  
  2462   124.2913    3525(59)          3466.1948         3429.4058                                                                  
  2463   124.3413    3546(59)          3468.4971         3430.4431                                                                  
  2464   124.3913    3596(59)          3470.9722         3431.4807                                                                  
  2465   124.4413    3503(59)          3473.6406         3432.5183                                                                  
  2466   124.4913    3453(58)          3476.5286         3433.5559                                                                  
  2467   124.5413    3343(57)          3479.6650         3434.5935                                                                  
  2468   124.5913    3406(58)          3483.0854         3435.6309                                                                  
  2469   124.6413    3544(59)          3486.8340         3436.6687                                                                  
  2470   124.6913    3591(59)          3490.9602         3437.7061                                                                  
  2471   124.7413    3523(59)          3495.5286         3438.7437                                                                  
  2472   124.7913    3495(59)          3500.6152         3439.7815                                                                  
  2473   124.8413    3537(59)          3506.3135         3440.8188                                                                  
  2474   124.8913    3719(60)          3512.7429         3441.8564                                                                  
  2475   124.9413    3903(62)          3520.0513         3442.8940                                                                  
  2476   124.9913    4115(64)          3528.4370         3443.9316                                                                  
  2477   125.0413    4316(65)          3538.1782         3444.9692                                                                  
  2478   125.0913    4708(68)          3549.7195         3446.0068                                                                  
  2479   125.1413    5437(73)          3563.8916         3447.0444                                                                  
  2480   125.1913    6569(81)          3582.3994         3448.0820                                                                  
  2481   125.2413    8200(90)          3608.9119         3449.1196                                                                  
  2482   125.2913    10228(101)          3651.0625         3450.1572                                                                
  2483   125.3413    12795(113)          3723.6858         3451.1946                                                                
  2484   125.3913    15551(124)          3853.0251         3452.2324                                                                
  2485   125.4413    17492(132)          4080.1450         3453.2698                                                                
  2486   125.4913    18920(137)          4460.7407         3454.3074                                                                
  2487   125.5413    19514(139)          5056.3789         3455.3450                                                                
  2488   125.5913    19159(138)          5914.8887         3456.3826                                                                
  2489   125.6413    18402(135)          7042.4326         3457.4202                                                                
  2490   125.6913    17503(132)          8374.1094         3458.4575                                                                
  2491   125.7413    16694(129)          9759.5605         3459.4954                                                                
  2492   125.7913    16206(127)         10968.5400         3460.5330                                                                
  2493   125.8413    15903(126)         11731.9463         3461.5703                                                                
  2494   125.8913    15075(122)         11837.2246         3462.6079                                                                
  2495   125.9413    13835(117)         11252.0283         3463.6455                                                                
  2496   125.9913    12038(109)         10147.4375         3464.6831                                                                
  2497   126.0413    10289(101)          8788.7539         3465.7207                                                                
  2498   126.0913    8659(93)          7423.7837         3466.7583                                                                  
  2499   126.1413    7085(84)          6227.9658         3467.7959                                                                  
  2500   126.1913    5753(75)          5290.6538         3468.8335                                                                  
  2501   126.2413    5021(70)          4623.6514         3469.8711                                                                  
  2502   126.2913    4602(67)          4188.0820         3470.9087                                                                  
  2503   126.3413    4265(65)          3924.2312         3471.9463                                                                  
  2504   126.3913    3852(62)          3773.1030         3472.9839                                                                  
  2505   126.4413    3793(61)          3689.0752         3474.0212                                                                  
  2506   126.4913    3718(60)          3641.8140         3475.0588                                                                  
  2507   126.5413    3702(60)          3613.6079         3476.0967                                                                  
  2508   126.5913    3530(59)          3595.1035         3477.1340                                                                  
  2509   126.6413    3500(59)          3581.7314         3478.1716                                                                  
  2510   126.6913    3490(59)          3571.3608         3479.2092                                                                  
  2511   126.7413    3498(59)          3562.9734         3480.2468                                                                  
  2512   126.7913    3526(59)          3556.9880         3481.2844                                                                  
  2513   126.8413    3382(58)          3551.2065         3482.3218                                                                  
  2514   126.8913    3595(59)          3546.3503         3483.3596                                                                  
  2515   126.9413    3440(58)          3542.2585         3484.3970                                                                  
  2516   126.9913    3499(59)          3538.8042         3485.4346                                                                  
  2517   127.0413    3400(58)          3535.8870         3486.4722                                                                  
  2518   127.0913    3447(58)          3533.4253         3487.5098                                                                  
  2519   127.1413    3400(58)          3531.3511         3488.5474                                                                  
  2520   127.1913    3378(58)          3529.6106         3489.5850                                                                  
  2521   127.2413    3417(58)          3528.1567         3490.6226                                                                  
  2522   127.2913    3403(58)          3526.9524         3491.6602                                                                  
  2523   127.3413    3513(59)          3525.9653         3492.6978                                                                  
  2524   127.3913    3416(58)          3525.1680         3493.7354                                                                  
  2525   127.4413    3496(59)          3524.5381         3494.7727                                                                  
  2526   127.4913    3436(58)          3524.0557         3495.8105                                                                  
  2527   127.5413    3526(59)          3523.7041         3496.8481                                                                  
  2528   127.5913    3582(59)          3523.4685         3497.8855                                                                  
  2529   127.6413    3481(59)          3523.3372         3498.9233                                                                  
  2530   127.6913    3583(59)          3523.2986         3499.9607                                                                  
  2531   127.7413    3462(58)          3523.3435         3500.9983                                                                  
  2532   127.7913    3462(58)          3523.4639         3502.0359                                                                  
  2533   127.8413    3470(58)          3523.6521         3503.0735                                                                  
  2534   127.8913    3441(58)          3523.9021         3504.1111                                                                  
  2535   127.9413    3470(58)          3524.2080         3505.1484                                                                  
  2536   127.9913    3464(58)          3524.5649         3506.1860                                                                  
  2537   128.0413    3481(59)          3524.9690         3507.2239                                                                  
  2538   128.0913    3530(59)          3525.4155         3508.2615                                                                  
  2539   128.1413    3473(58)          3525.9011         3509.2988                                                                  
  2540   128.1913    3542(59)          3526.4231         3510.3364                                                                  
  2541   128.2413    3577(59)          3526.9783         3511.3740                                                                  
  2542   128.2913    3611(60)          3527.5645         3512.4116                                                                  
  2543   128.3413    3561(59)          3528.1790         3513.4492                                                                  
  2544   128.3913    3384(58)          3528.8203         3514.4868                                                                  
  2545   128.4413    3428(58)          3529.1121         3515.1499                                                                  
  2546   128.4913    3433(58)          3529.2812         3515.6675                                                                  
  2547   128.5413    3478(58)          3529.4722         3516.1851                                                                  
  2548   128.5913    3583(59)          3529.6838         3516.7029                                                                  
  2549   128.6413    3425(58)          3529.9143         3517.2202                                                                  
  2550   128.6913    3491(59)          3530.1628         3517.7378                                                                  
  2551   128.7413    3431(58)          3530.4290         3518.2554                                                                  
  2552   128.7913    3455(58)          3530.7114         3518.7729                                                                  
  2553   128.8413    3606(60)          3531.0095         3519.2908                                                                  
  2554   128.8913    3506(59)          3531.3225         3519.8081                                                                  
  2555   128.9413    3474(58)          3531.6499         3520.3257                                                                  
  2556   128.9913    3643(60)          3531.9915         3520.8433                                                                  
  2557   129.0413    3532(59)          3532.3464         3521.3608                                                                  
  2558   129.0913    3429(58)          3532.7148         3521.8787                                                                  
  2559   129.1413    3444(58)          3533.0959         3522.3960                                                                  
  2560   129.1913    3473(58)          3533.4900         3522.9136                                                                  
  2561   129.2413    3510(59)          3533.8967         3523.4312                                                                  
  2562   129.2913    3406(58)          3534.3162         3523.9487                                                                  
  2563   129.3413    3499(59)          3534.7485         3524.4666                                                                  
  2564   129.3913    3451(58)          3535.1934         3524.9839                                                                  
  2565   129.4413    3553(59)          3535.6516         3525.5015                                                                  
  2566   129.4913    3486(59)          3536.1233         3526.0190                                                                  
  2567   129.5413    3530(59)          3536.6091         3526.5366                                                                  
  2568   129.5913    3434(58)          3537.1096         3527.0544                                                                  
  2569   129.6413    3397(58)          3537.6248         3527.5718                                                                  
  2570   129.6913    3608(60)          3538.1565         3528.0894                                                                  
  2571   129.7413    3522(59)          3538.7053         3528.6069                                                                  
  2572   129.7913    3466(58)          3539.2729         3529.1245                                                                  
  2573   129.8413    3501(59)          3539.8604         3529.6421                                                                  
  2574   129.8913    3511(59)          3540.4697         3530.1597                                                                  
  2575   129.9413    3503(59)          3541.1033         3530.6772                                                                  
  2576   129.9913    3459(58)          3541.7634         3531.1948                                                                  
  2577   130.0413    3536(59)          3542.4534         3531.7124                                                                  
  2578   130.0913    3554(59)          3543.1768         3532.2300                                                                  
  2579   130.1413    3536(59)          3543.9382         3532.7476                                                                  
  2580   130.1913    3529(59)          3544.7429         3533.2651                                                                  
  2581   130.2413    3460(58)          3545.5977         3533.7827                                                                  
  2582   130.2913    3495(59)          3546.5100         3534.3003                                                                  
  2583   130.3413    3561(59)          3547.4897         3534.8179                                                                  
  2584   130.3913    3522(59)          3548.5491         3535.3354                                                                  
  2585   130.4413    3562(59)          3549.7029         3535.8530                                                                  
  2586   130.4913    3568(59)          3550.9705         3536.3706                                                                  
  2587   130.5413    3546(59)          3552.3767         3536.8882                                                                  
  2588   130.5913    3543(59)          3553.9565         3537.4058                                                                  
  2589   130.6413    3665(60)          3555.7649         3537.9233                                                                  
  2590   130.6913    3855(62)          3557.9014         3538.4409                                                                  
  2591   130.7413    3889(62)          3560.5674         3538.9585                                                                  
  2592   130.7913    3976(63)          3564.1875         3539.4761                                                                  
  2593   130.8413    4224(64)          3569.6416         3539.9937                                                                  
  2594   130.8913    4227(65)          3578.6279         3540.5112                                                                  
  2595   130.9413    4278(65)          3594.1406         3541.0288                                                                  
  2596   130.9913    4319(65)          3620.8367         3541.5464                                                                  
  2597   131.0413    4389(66)          3664.9600         3542.0640                                                                  
  2598   131.0913    4401(66)          3733.3088         3542.5815                                                                  
  2599   131.1413    4249(65)          3830.9309         3543.0991                                                                  
  2600   131.1913    4242(65)          3958.0347         3543.6167                                                                  
  2601   131.2413    4348(65)          4106.6821         3544.1343                                                                  
  2602   131.2913    4150(64)          4259.2075         3544.6519                                                                  
  2603   131.3413    4170(64)          4388.9751         3545.1694                                                                  
  2604   131.3913    4143(64)          4465.2568         3545.6870                                                                  
  2605   131.4413    4043(63)          4465.4810         3546.2046                                                                  
  2606   131.4913    4147(64)          4389.6982         3546.7222                                                                  
  2607   131.5413    4070(64)          4260.6392         3547.2397                                                                  
  2608   131.5913    3812(62)          4109.0229         3547.7573                                                                  
  2609   131.6413    3743(61)          3961.4788         3548.2749                                                                  
  2610   131.6913    3848(62)          3835.5117         3548.7925                                                                  
  2611   131.7413    3716(61)          3739.0227         3549.3101                                                                  
  2612   131.7913    3597(61)          3671.8193         3549.8276                                                                  
  2613   131.8413    3537(60)          3628.7979         3550.3452                                                                  
  2614   131.8913    3442(59)          3603.1633         3550.8628                                                                  
  2615   131.9413    3626(61)          3588.6658         3551.3804                                                                  
  2616   131.9913    3594(61)          3580.6677         3551.8979                                                                  
  2617   132.0413    3634(61)          3576.1892         3552.4155                                                                  
  2618   132.0913    3574(61)          3573.5354         3552.9331                                                                  
  2619   132.1413    3578(61)          3571.8315         3553.4507                                                                  
  2620   132.1913    3565(61)          3570.6531         3553.9683                                                                  
  2621   132.2413    3576(61)          3569.8005         3554.4858                                                                  
  2622   132.2913    3627(62)          3569.1748         3555.0034                                                                  
  2623   132.3413    3581(62)          3568.7212         3555.5210                                                                  
  2624   132.3913    3617(62)          3568.4048         3556.0386                                                                  
  2625   132.4413    3574(62)          3568.2000         3556.5562                                                                  
  2626   132.4913    3580(62)          3568.0876         3557.0737                                                                  
  2627   132.5413    3563(62)          3568.0530         3557.5913                                                                  
  2628   132.5913    3598(62)          3566.9910         3558.1089                                                                  
  2629   132.6413    3624(63)          3567.0867         3558.6265                                                                  
  2630   132.6913    3696(64)          3567.2295         3559.1440                                                                  
  2631   132.7413    3619(63)          3567.4131         3559.6616                                                                  
  2632   132.7913    3558(63)          3567.6321         3560.1792                                                                  
  2633   132.8413    3681(64)          3567.8816         3560.6968                                                                  
  2634   132.8913    3588(63)          3568.1580         3561.2144                                                                  
  2635   132.9413    3598(63)          3568.4578         3561.7319                                                                  
  2636   132.9913    3647(64)          3568.7783         3562.2495                                                                  
  2637   133.0413    3573(63)          3569.1174         3562.7671                                                                  
  2638   133.0913    3568(63)          3569.4727         3563.2847                                                                  
  2639   133.1413    3559(63)          3569.8423         3563.8022                                                                  
  2640   133.1913    3569(64)          3570.2251         3564.3198                                                                  
  2641   133.2413    3601(64)          3570.6196         3564.8374                                                                  
  2642   133.2913    3621(64)          3571.0249         3565.3550                                                                  
  2643   133.3413    3528(64)          3571.4395         3565.8726                                                                  
  2644   133.3913    3656(65)          3571.8630         3566.3901                                                                  
  2645   133.4413    3589(65)          3572.2942         3566.9077                                                                  
  2646   133.4913    3575(64)          3572.7327         3567.4253                                                                  
  2647   133.5413    3507(64)          3573.1777         3567.9429                                                                  
  2648   133.5913    3516(64)          3573.6292         3568.4604                                                                  
  2649   133.6413    3641(65)          3574.0859         3568.9780                                                                  
  2650   133.6913    3637(66)          3574.5479         3569.4956                                                                  
  2651   133.7413    3621(66)          3575.0144         3570.0132                                                                  
  2652   133.7913    3634(66)          3575.4856         3570.5308                                                                  
  2653   133.8413    3663(66)          3575.9609         3571.0483                                                                  
  2654   133.8913    3657(66)          3576.4402         3571.5659                                                                  
  2655   133.9413    3647(66)          3576.9229         3572.0835                                                                  
  2656   133.9913    3570(66)          3577.4089         3572.6011                                                                  
  2657   134.0413    3676(67)          3577.8982         3573.1187                                                                  
  2658   134.0913    3762(68)          3578.3904         3573.6362                                                                  
  2659   134.1413    3675(67)          3578.8855         3574.1538                                                                  
  2660   134.1913    3612(67)          3579.3831         3574.6714                                                                  
  2661   134.2413    3651(67)          3579.8833         3575.1890                                                                  
  2662   134.2913    3658(67)          3580.3857         3575.7065                                                                  
  2663   134.3413    3584(67)          3580.8906         3576.2241                                                                  
  2664   134.3913    3663(68)          3581.3977         3576.7417                                                                  
  2665   134.4413    3765(69)          3581.9067         3577.2593                                                                  
  2666   134.4913    3753(69)          3582.4180         3577.7769                                                                  
  2667   134.5413    3544(67)          3582.9309         3578.2944                                                                  
  2668   134.5913    3688(68)          3583.4456         3578.8120                                                                  
  2669   134.6413    3524(67)          3583.9622         3579.3296                                                                  
  2670   134.6913    3622(68)          3584.4805         3579.8472                                                                  
  2671   134.7413    3610(68)          3585.0005         3580.3647                                                                  
  2672   134.7913    3481(67)          3585.5220         3580.8823                                                                  
  2673   134.8413    3447(67)          3586.0449         3581.3999                                                                  
  2674   134.8913    3590(68)          3586.5696         3581.9175                                                                  
  2675   134.9413    3566(68)          3587.0955         3582.4351                                                                  
  2676   134.9913    3562(68)          3587.6230         3582.9526                                                                  
  2677   135.0413    3615(69)          3588.1519         3583.4702                                                                  
  2678   135.0913    3678(70)          3588.6819         3583.9878                                                                  
  2679   135.1413    3766(71)          3589.2136         3584.5054                                                                  
  2680   135.1913    3700(70)          3589.7466         3585.0229                                                                  
  2681   135.2413    3638(70)          3590.2808         3585.5405                                                                  
  2682   135.2913    3595(69)          3590.8162         3586.0581                                                                  
  2683   135.3413    3572(69)          3591.3530         3586.5757                                                                  
  2684   135.3913    3617(70)          3591.8909         3587.0933                                                                  
  2685   135.4413    3644(70)          3592.4302         3587.6108                                                                  
  2686   135.4913    3574(70)          3592.9707         3588.1284                                                                  
  2687   135.5413    3487(69)          3593.5125         3588.6460                                                                  
  2688   135.5913    3647(71)          3594.0554         3589.1636                                                                  
  2689   135.6413    3766(72)          3594.5996         3589.6812                                                                  
  2690   135.6913    3681(71)          3595.1450         3590.1987                                                                  
  2691   135.7413    3617(71)          3595.6917         3590.7163                                                                  
  2692   135.7913    3568(71)          3596.2395         3591.2339                                                                  
  2693   135.8413    3501(70)          3596.7886         3591.7515                                                                  
  2694   135.8913    3660(72)          3597.3389         3592.2690                                                                  
  2695   135.9413    3638(72)          3597.8904         3592.7866                                                                  
  2696   135.9913    3504(70)          3598.4431         3593.3042                                                                  
  2697   136.0413    3638(72)          3598.9971         3593.8218                                                                  
  2698   136.0913    3666(72)          3599.5522         3594.3394                                                                  
  2699   136.1413    3681(73)          3600.1089         3594.8569                                                                  
  2700   136.1913    3687(73)          3600.6665         3595.3745                                                                  
  2701   136.2413    3597(72)          3601.2256         3595.8921                                                                  
  2702   136.2913    3707(73)          3601.7859         3596.4097                                                                  
  2703   136.3413    3665(73)          3602.3477         3596.9272                                                                  
  2704   136.3913    3657(73)          3602.9106         3597.4448                                                                  
  2705   136.4413    3614(73)          3603.4751         3597.9624                                                                  
  2706   136.4913    3681(74)          3604.0408         3598.4800                                                                  
  2707   136.5413    3764(75)          3604.6079         3598.9976                                                                  
  2708   136.5913    3558(73)          3605.1763         3599.5151                                                                  
  2709   136.6413    3644(74)          3605.7463         3600.0327                                                                  
  2710   136.6913    3811(76)          3606.3176         3600.5503                                                                  
  2711   136.7413    3840(76)          3606.8906         3601.0679                                                                  
  2712   136.7913    3620(74)          3607.4651         3601.5854                                                                  
  2713   136.8413    3577(74)          3608.0410         3602.1030                                                                  
  2714   136.8913    3611(74)          3608.6182         3602.6204                                                                  
  2715   136.9413    3708(75)          3609.1975         3603.1382                                                                  
  2716   136.9913    3751(76)          3609.7783         3603.6558                                                                  
  2717   137.0413    3566(74)          3610.3606         3604.1733                                                                  
  2718   137.0913    3672(75)          3610.9446         3604.6909                                                                  
  2719   137.1413    3588(75)          3611.5303         3605.2083                                                                  
  2720   137.1913    3739(76)          3612.1182         3605.7261                                                                  
  2721   137.2413    3747(77)          3612.7075         3606.2437                                                                  
  2722   137.2913    3748(77)          3613.2988         3606.7612                                                                  
  2723   137.3413    3814(78)          3613.8918         3607.2788                                                                  
  2724   137.3913    3862(78)          3614.4868         3607.7961                                                                  
  2725   137.4413    3911(79)          3615.0842         3608.3140                                                                  
  2726   137.4913    3857(78)          3615.6833         3608.8315                                                                  
  2727   137.5413    3626(76)          3616.2847         3609.3491                                                                  
  2728   137.5913    3757(78)          3616.8879         3609.8667                                                                  
  2729   137.6413    3689(77)          3617.4934         3610.3840                                                                  
  2730   137.6913    3626(77)          3618.1016         3610.9019                                                                  
  2731   137.7413    3672(77)          3618.7119         3611.4194                                                                  
  2732   137.7913    3660(77)          3619.3245         3611.9370                                                                  
  2733   137.8413    3603(77)          3619.9395         3612.4546                                                                  
  2734   137.8913    3644(77)          3620.5569         3612.9719                                                                  
  2735   137.9413    3644(78)          3621.1775         3613.4897                                                                  
  2736   137.9913    3526(76)          3621.8003         3614.0073                                                                  
  2737   138.0413    3710(79)          3622.4260         3614.5249                                                                  
  2738   138.0913    3751(79)          3623.0547         3615.0425                                                                  
  2739   138.1413    3757(79)          3623.6858         3615.5598                                                                  
  2740   138.1913    3641(78)          3624.3206         3616.0776                                                                  
  2741   138.2413    3721(79)          3624.9580         3616.5952                                                                  
  2742   138.2913    3755(80)          3625.5989         3617.1128                                                                  
  2743   138.3413    3694(79)          3626.2429         3617.6304                                                                  
  2744   138.3913    3673(79)          3626.4934         3618.1477                                                                  
  2745   138.4413    3757(80)          3627.1479         3618.6655                                                                  
  2746   138.4913    3797(81)          3627.8059         3619.1831                                                                  
  2747   138.5413    3666(80)          3628.4673         3619.7007                                                                  
  2748   138.5913    3768(81)          3629.1328         3620.2183                                                                  
  2749   138.6413    3784(81)          3629.8018         3620.7356                                                                  
  2750   138.6913    3703(81)          3630.4756         3621.2534                                                                  
  2751   138.7413    3855(82)          3631.1533         3621.7710                                                                  
  2752   138.7913    3853(83)          3631.8357         3622.2886                                                                  
  2753   138.8413    3721(81)          3632.5225         3622.8062                                                                  
  2754   138.8913    3544(79)          3633.2136         3623.3235                                                                  
  2755   138.9413    3606(80)          3633.9102         3623.8411                                                                  
  2756   138.9913    3740(82)          3634.6121         3624.3589                                                                  
  2757   139.0413    3690(82)          3635.3188         3624.8765                                                                  
  2758   139.0913    3645(81)          3636.0312         3625.3940                                                                  
  2759   139.1413    3758(83)          3636.7488         3625.9114                                                                  
  2760   139.1913    3591(81)          3637.4729         3626.4290                                                                  
  2761   139.2413    3746(83)          3638.2031         3626.9468                                                                  
  2762   139.2913    3720(83)          3638.9397         3627.4644                                                                  
  2763   139.3413    3705(83)          3639.6829         3627.9819                                                                  
  2764   139.3913    3727(83)          3640.5042         3628.5710                                                                  
  2765   139.4413    3689(83)          3641.7747         3629.6018                                                                  
  2766   139.4913    3797(84)          3643.0527         3630.6328                                                                  
  2767   139.5413    3725(84)          3644.3384         3631.6636                                                                  
  2768   139.5913    3682(83)          3645.6321         3632.6943                                                                  
  2769   139.6413    3629(83)          3646.9341         3633.7249                                                                  
  2770   139.6913    3657(83)          3648.2451         3634.7556                                                                  
  2771   139.7413    3705(84)          3649.5657         3635.7866                                                                  
  2772   139.7913    3781(85)          3650.8955         3636.8174                                                                  
  2773   139.8413    3713(85)          3652.2354         3637.8481                                                                  
  2774   139.8913    3697(85)          3653.5852         3638.8787                                                                  
  2775   139.9413    3599(84)          3654.9465         3639.9094                                                                  
  2776   139.9913    3620(84)          3656.3193         3640.9404                                                                  
  2777   140.0413    3698(85)          3657.7041         3641.9712                                                                  
  2778   140.0913    3826(87)          3659.1013         3643.0020                                                                  
  2779   140.1413    3623(85)          3660.5112         3644.0325                                                                  
  2780   140.1913    3743(86)          3661.9353         3645.0632                                                                  
  2781   140.2413    3781(87)          3663.3740         3646.0942                                                                  
  2782   140.2913    3778(87)          3664.8276         3647.1250                                                                  
  2783   140.3413    3739(87)          3666.2971         3648.1558                                                                  
  2784   140.3913    3611(85)          3667.7830         3649.1863                                                                  
  2785   140.4413    3698(86)          3669.2866         3650.2170                                                                  
  2786   140.4913    3730(87)          3670.8091         3651.2480                                                                  
  2787   140.5413    3769(88)          3672.3506         3652.2788                                                                  
  2788   140.5913    3792(88)          3673.9126         3653.3096                                                                  
  2789   140.6413    3785(88)          3675.4956         3654.3401                                                                  
  2790   140.6913    3844(89)          3677.1018         3655.3708                                                                  
  2791   140.7413    3807(89)          3678.7317         3656.4016                                                                  
  2792   140.7913    3691(88)          3680.3875         3657.4326                                                                  
  2793   140.8413    3757(89)          3682.0696         3658.4634                                                                  
  2794   140.8913    3730(88)          3683.7793         3659.4939                                                                  
  2795   140.9413    3825(90)          3685.5198         3660.5247                                                                  
  2796   140.9913    3719(89)          3687.2915         3661.5554                                                                  
  2797   141.0413    3709(89)          3689.0974         3662.5864                                                                  
  2798   141.0913    3689(89)          3690.9385         3663.6172                                                                  
  2799   141.1413    3770(90)          3692.8169         3664.6477                                                                  
  2800   141.1913    3775(90)          3694.7361         3665.6785                                                                  
  2801   141.2413    3704(89)          3696.6982         3666.7092                                                                  
  2802   141.2913    3676(89)          3698.7061         3667.7402                                                                  
  2803   141.3413    3661(89)          3700.7620         3668.7710                                                                  
  2804   141.3913    3833(92)          3702.8694         3669.8015                                                                  
  2805   141.4413    3736(91)          3705.0327         3670.8323                                                                  
  2806   141.4913    3723(91)          3707.2554         3671.8630                                                                  
  2807   141.5413    3573(89)          3709.5415         3672.8940                                                                  
  2808   141.5913    3789(92)          3711.8955         3673.9248                                                                  
  2809   141.6413    3661(90)          3714.3215         3674.9553                                                                  
  2810   141.6913    3722(91)          3716.8269         3675.9861                                                                  
  2811   141.7413    3751(92)          3719.4163         3677.0168                                                                  
  2812   141.7913    3774(92)          3722.0969         3678.0479                                                                  
  2813   141.8413    3821(93)          3724.8750         3679.0786                                                                  
  2814   141.8913    3774(93)          3727.7583         3680.1091                                                                  
  2815   141.9413    3765(93)          3730.7571         3681.1399                                                                  
  2816   141.9913    3629(91)          3733.8796         3682.1707                                                                  
  2817   142.0413    3755(93)          3737.1372         3683.2017                                                                  
  2818   142.0913    3813(94)          3740.5410         3684.2324                                                                  
  2819   142.1413    3771(94)          3744.1033         3685.2629                                                                  
  2820   142.1913    3708(93)          3747.8406         3686.2937                                                                  
  2821   142.2413    3788(94)          3751.7678         3687.3245                                                                  
  2822   142.2913    3836(95)          3755.9038         3688.3555                                                                  
  2823   142.3413    3760(94)          3760.2681         3689.3862                                                                  
  2824   142.3913    3740(94)          3764.8823         3690.4167                                                                  
  2825   142.4413    3843(96)          3769.7749         3691.4475                                                                  
  2826   142.4913    3847(96)          3774.9736         3692.4783                                                                  
  2827   142.5413    3977(98)          3780.5120         3693.5093                                                                  
  2828   142.5913    4000(98)          3786.4263         3694.5400                                                                  
  2829   142.6413    4027(99)          3792.7578         3695.5706                                                                  
  2830   142.6913    3986(99)          3799.5593         3696.6013                                                                  
  2831   142.7413    4120(100)          3806.8848         3697.6321                                                                 
  2832   142.7913    4214(102)          3814.7991         3698.6631                                                                 
  2833   142.8413    4286(103)          3823.3767         3699.6938                                                                 
  2834   142.8913    4463(105)          3832.7019         3700.7244                                                                 
  2835   142.9413    4594(107)          3842.8818         3701.7551                                                                 
  2836   142.9913    4830(110)          3854.0342         3702.7859                                                                 
  2837   143.0413    5095(113)          3866.3022         3703.8167                                                                 
  2838   143.0913    5457(117)          3879.8623         3704.8477                                                                 
  2839   143.1413    5865(122)          3894.9324         3705.8782                                                                 
  2840   143.1913    6445(128)          3911.8206         3706.9089                                                                 
  2841   143.2413    7373(137)          3930.9526         3707.9397                                                                 
  2842   143.2913    8598(149)          3952.9917         3708.9705                                                                 
  2843   143.3413    10223(163)          3979.0222         3710.0015                                                                
  2844   143.3913    12130(177)          4010.8660         3711.0320                                                                
  2845   143.4413    15184(199)          4051.6606         3712.0627                                                                
  2846   143.4913    18735(222)          4106.6260         3713.0935                                                                
  2847   143.5413    22914(246)          4184.2617         3714.1243                                                                
  2848   143.5913    26366(264)          4297.8154         3715.1553                                                                
  2849   143.6413    29800(281)          4466.8428         3716.1858                                                                
  2850   143.6913    32523(295)          4718.8149         3717.2166                                                                
  2851   143.7413    34258(303)          5089.3374         3718.2473                                                                
  2852   143.7913    34451(305)          5621.1548         3719.2781                                                                
  2853   143.8413    34047(303)          6360.3657         3720.3091                                                                
  2854   143.8913    31535(293)          7349.5371         3721.3396                                                                
  2855   143.9413    29858(285)          8619.0977         3722.3704                                                                
  2856   143.9913    27937(277)         10174.4258         3723.4011                                                                
  2857   144.0413    26464(270)         11985.9355         3724.4319                                                                
  2858   144.0913    25560(266)         13980.6299         3725.4629                                                                
  2859   144.1413    24597(261)         16038.0967         3726.4934                                                                
  2860   144.1913    24328(260)         17995.7090         3727.5242                                                                
  2861   144.2413    24728(263)         19655.2383         3728.5549                                                                
  2862   144.2913    25067(265)         20809.4707         3729.5857                                                                
  2863   144.3413    24998(266)         21286.5098         3730.6167                                                                
  2864   144.3913    23994(261)         21007.4883         3731.6472                                                                
  2865   144.4413    22096(251)         20019.3848         3732.6780                                                                
  2866   144.4913    20025(239)         18475.0723         3733.7087                                                                
  2867   144.5413    17484(224)         16577.7363         3734.7395                                                                
  2868   144.5913    15257(210)         14530.5908         3735.7705                                                                
  2869   144.6413    13043(194)         12508.4287         3736.8010                                                                
  2870   144.6913    10863(178)         10641.8906         3737.8318                                                                
  2871   144.7413    9116(163)          9016.7920         3738.8625                                                                 
  2872   144.7913    8079(154)          7673.5010         3739.8933                                                                 
  2873   144.8413    7014(144)          6614.6406         3740.9243                                                                 
  2874   144.8913    6506(139)          5815.7803         3741.9546                                                                 
  2875   144.9413    5943(133)          5235.9980         3742.9856                                                                 
  2876   144.9913    5437(127)          4829.5259         3744.0164                                                                 
  2877   145.0413    5288(126)          4552.2471         3745.0471                                                                 
  2878   145.0913    4888(121)          4366.4473         3746.0781                                                                 
  2879   145.1413    4581(117)          4242.6050         3747.1084                                                                 
  2880   145.1913    4543(117)          4159.1079         3748.1394                                                                 
  2881   145.2413    4248(114)          4101.2354         3749.1702                                                                 
  2882   145.2913    4273(114)          4059.3950         3750.2009                                                                 
  2883   145.3413    4236(114)          4027.6255         3751.2319                                                                 
  2884   145.3913    4179(113)          4002.3528         3752.2622                                                                 
  2885   145.4413    4119(113)          3981.4548         3753.2932                                                                 
  2886   145.4913    4024(112)          3963.6973         3754.3240                                                                 
  2887   145.5413    3927(111)          3948.3291         3755.3547                                                                 
  2888   145.5913    3929(111)          3934.8723         3756.3855                                                                 
  2889   145.6413    3896(111)          3923.0034         3757.4160                                                                 
  2890   145.6913    3881(111)          3912.4758         3758.4470                                                                 
  2891   145.7413    4068(114)          3903.1064         3759.4778                                                                 
  2892   145.7913    3854(111)          3894.7446         3760.5085                                                                 
  2893   145.8413    3876(111)          3887.2644         3761.5393                                                                 
  2894   145.8913    3831(111)          3880.5618         3762.5698                                                                 
  2895   145.9413    3783(111)          3874.5425         3763.6008                                                                 
  2896   145.9913    3798(111)          3869.1299         3764.6316                                                                 
  2897   146.0413    3921(113)          3864.2576         3765.6624                                                                 
  2898   146.0913    3981(114)          3859.8672         3766.6931                                                                 
  2899   146.1413    3966(114)          3855.9092         3767.7236                                                                 
  2900   146.1913    3732(111)          3852.3376         3768.7546                                                                 
  2901   146.2413    3866(113)          3849.1140         3769.7854                                                                 
  2902   146.2913    3872(114)          3846.2048         3770.8162                                                                 
  2903   146.3413    3856(114)          3843.5801         3771.8469                                                                 
  2904   146.3913    3831(113)          3841.2139         3772.8774                                                                 
  2905   146.4413    3966(116)          3839.0813         3773.9084                                                                 
  2906   146.4913    3988(116)          3837.1619         3774.9392                                                                 
  2907   146.5413    3884(115)          3835.4373         3775.9700                                                                 
  2908   146.5913    3802(114)          3833.8909         3777.0007                                                                 
  2909   146.6413    4070(118)          3832.5078         3778.0312                                                                 
  2910   146.6913    4041(118)          3831.2742         3779.0623                                                                 
  2911   146.7413    3798(115)          3830.1782         3780.0930                                                                 
  2912   146.7913    3939(117)          3829.2087         3781.1238                                                                 
  2913   146.8413    3774(115)          3828.3562         3782.1545                                                                 
  2914   146.8913    3844(116)          3827.6121         3783.1851                                                                 
  2915   146.9413    4044(120)          3826.9680         3784.2161                                                                 
  2916   146.9913    3691(114)          3826.4160         3785.2468                                                                 
  2917   147.0413    3931(118)          3825.9502         3786.2776                                                                 
  2918   147.0913    3937(119)          3825.5642         3787.3083                                                                 
  2919   147.1413    3834(117)          3825.2524         3788.3389                                                                 
  2920   147.1913    3762(117)          3825.0100         3789.3696                                                                 
  2921   147.2413    3854(118)          3824.8320         3790.4006                                                                 
  2922   147.2913    3979(120)          3824.7144         3791.4314                                                                 
  2923   147.3413    3954(120)          3824.6531         3792.4622                                                                 
  2924   147.3913    3990(121)          3824.6443         3793.4927                                                                 
  2925   147.4413    4087(123)          3824.6851         3794.5234                                                                 
  2926   147.4913    3851(120)          3824.7725         3795.5544                                                                 
  2927   147.5413    3858(120)          3824.9028         3796.5852                                                                 
  2928   147.5913    3988(122)          3825.0742         3797.6160                                                                 
  2929   147.6413    4073(124)          3825.2842         3798.6465                                                                 
  2930   147.6913    4077(124)          3825.5300         3799.6772                                                                 
  2931   147.7413    3757(120)          3825.8103         3800.7083                                                                 
  2932   147.7913    3712(119)          3826.1226         3801.7390                                                                 
  2933   147.8413    3792(121)          3826.4651         3802.7698                                                                 
  2934   147.8913    3844(122)          3826.8364         3803.8003                                                                 
  2935   147.9413    3976(124)          3827.2346         3804.8311                                                                 
  2936   147.9913    3901(123)          3827.6589         3805.8621                                                                 
  2937   148.0413    3894(123)          3828.1072         3806.8928                                                                 
  2938   148.0913    3870(123)          3828.5784         3807.9236                                                                 
  2939   148.1413    3989(126)          3829.0713         3808.9541                                                                 
  2940   148.1913    4126(128)          3829.5852         3809.9849                                                                 
  2941   148.2413    3999(126)          3830.1187         3811.0159                                                                 
  2942   148.2913    4193(130)          3830.6707         3812.0466                                                                 
  2943   148.3413    4031(127)          3831.2405         3813.0774                                                                 
  2944   148.3913    3904(126)          3831.8271         3814.1079                                                                 
  2945   148.4413    3886(126)          3832.4297         3815.1387                                                                 
  2946   148.4913    3943(127)          3833.0481         3816.1697                                                                 
  2947   148.5413    3855(126)          3833.6807         3817.2004                                                                 
  2948   148.5913    3992(128)          3834.3271         3818.2312                                                                 
  2949   148.6413    3943(128)          3834.9868         3819.2617                                                                 
  2950   148.6913    3921(128)          3835.6592         3820.2925                                                                 
  2951   148.7413    3940(128)          3836.3440         3821.3235                                                                 
  2952   148.7913    3924(128)          3837.0400         3822.3542                                                                 
  2953   148.8413    3940(129)          3837.7471         3823.3850                                                                 
  2954   148.8913    3959(130)          3838.4646         3824.4155                                                                 
  2955   148.9413    3873(128)          3839.1924         3825.4463                                                                 
  2956   148.9913    3929(130)          3839.9302         3826.4773                                                                 
  2957   149.0413    3927(130)          3840.6768         3827.5081                                                                 
  2958   149.0913    3894(130)          3841.4324         3828.5388                                                                 
  2959   149.1413    3944(131)          3842.1965         3829.5693                                                                 
  2960   149.1913    3961(131)          3842.9688         3830.6001                                                                 
  2961   149.2413    3798(129)          3843.7493         3831.6311                                                                 
  2962   149.2913    3862(130)          3844.5369         3832.6619                                                                 
  2963   149.3413    3904(131)          3845.3318         3833.6926                                                                 
  2964   149.3913    3917(132)          3846.1335         3834.7231                                                                 
  2965   149.4413    3861(131)          3846.9421         3835.7539                                                                 
  2966   149.4913    3963(133)          3847.7571         3836.7847                                                                 
  2967   149.5413    3900(133)          3848.5786         3837.8157                                                                 
  2968   149.5913    3953(134)          3849.4055         3838.8464                                                                 
  2969   149.6413    4014(135)          3850.2383         3839.8770                                                                 
  2970   149.6913    3842(133)          3850.0667         3839.8977                                                                 
  2971   149.7413    3890(134)          3849.8794         3839.8977                                                                 
  2972   149.7913    3941(135)          3849.6975         3839.8977                                                                 
  2973   149.8413    4040(137)          3849.5203         3839.8977                                                                 
  2974   149.8913    3926(135)          3849.3481         3839.8977                                                                 
  2975   149.9413    4013(137)          3839.8977         3839.8977                                                                 
_pd_proc_number_of_points   2799
 

# The following lines are used to test the character set of files sent by     
# network email or other means. They are not part of the CIF data set.        
# abcdefghijklmnopqrstuvwxyzABCDEFGHIJKLMNOPQRSTUVWXYZ0123456789              
# !@#$%^&*()_+{}:"~<>?|\-=[];'`,./ 




_cell_formula_units_Z
1
_diffrn_source
'nuclear reactor'
_cell_length_a
3.98346(7)
_cell_length_b
3.98346(7)
_cell_length_c
3.98346(7)
_chemical_formula_analytical
K0.48Na0.48Li0.04Nb0.98Mn0.02O3
_diffrn_radiation_type
'neutron'
_publ_contact_author_email
manuel.hinterstein@gmail.com
_symmetry_space_group_name_Hall
'-P 4 2 3'
_chemical_formula_weight
170.23144
_refine_ls_number_restraints
0
_computing_structure_refinement
FULLPROF
_database_code_depnum_ccdc_archive
'CCDC 1828083'
_symmetry_space_group_name_H-M
'P m -3 m'
_cell_angle_gamma
90.0000
_cell_measurement_temperature
776
_pd_char_colour
grey
_refine_ls_number_reflns
24
_diffrn_source_type
'FRMII/SPODI'
_publ_requested_journal
J.Appl.Crystallogr.
_pd_meas_number_of_points
3014
_cell_volume
63.2093(20)
_publcif_datablock.id
'{d5f9e3f5-70ad-42d7-baff-8cab751434f3}'
_symmetry_cell_setting
Cubic
_diffrn_ambient_temperature
776
_chemical_name_common
KNN
_refine_ls_R_I_factor
0.042781
_diffrn_measurement_device_type
'powder diffractometer'
_publ_contact_author_name
'Manuel Hinterstein'
_cell_angle_alpha
90.0000
_refine_ls_number_parameters
26
_chemical_formula_sum
K0.48Na0.48Li0.04Nb0.98Mn0.02O3
_cell_angle_beta
90.0000
_publcif_info_exptl_table_max_cols
4
_pd_proc_wavelength
1.548165
_publcif_info_exptl_table_use_headnotes
n
loop_
_publ_author_name
_publ_author_address

;Hinterstein, Manuel
;


loop_
_atom_type_symbol
_atom_type_scat_length_neutron
_atom_type_scat_source
O 0.58030 V.F._Sears_Neutron_News_3_26_(1992)
Na 0.36300 V.F._Sears_Neutron_News_3_26_(1992)
K 0.36700 V.F._Sears_Neutron_News_3_26_(1992)
Li -0.19000 V.F._Sears_Neutron_News_3_26_(1992)
Nb 0.70540 V.F._Sears_Neutron_News_3_26_(1992)
Mn -0.37300 V.F._Sears_Neutron_News_3_26_(1992)

loop_
_symmetry_equiv_pos_as_xyz
x,y,z
x,-y,-z
-x,y,-z
-x,-y,z
y,z,x
-y,-z,x
y,-z,-x
-y,z,-x
z,x,y
-z,x,-y
-z,-x,y
z,-x,-y
y,x,z
-y,x,-z
y,-x,-z
-y,-x,z
z,y,x
-z,-y,x
-z,y,-x
z,-y,-x
x,z,y
x,-z,-y
-x,-z,y
-x,z,-y
-x,-y,-z
-x,y,z
x,-y,z
x,y,-z
-y,-z,-x
y,z,-x
-y,z,x
y,-z,x
-z,-x,-y
z,-x,y
z,x,-y
-z,x,y
-y,-x,-z
y,-x,z
-y,x,z
y,x,-z
-z,-y,-x
z,y,-x
z,-y,x
-z,y,x
-x,-z,-y
-x,z,y
x,z,-y
x,-z,y

loop_
_atom_site_label
_atom_site_fract_x
_atom_site_fract_y
_atom_site_fract_z
_atom_site_u_iso_or_equiv
_atom_site_occupancy
_atom_site_adp_type
_atom_site_type_symbol
O1 0.50000 0.00000 0.50000 0.0250(7) 1.00000 Uiso O
Na1 0.00000 0.00000 0.00000 0.0377(11) 0.48000 Uiso Na
K1 0.00000 0.00000 0.00000 0.0377(11) 0.48000 Uiso K
Li1 0.00000 0.00000 0.00000 0.0377(11) 0.03984 Uiso Li
Nb1 0.50000 0.50000 0.50000 0.0142(7) 0.98016 Uiso Nb
Mn1 0.50000 0.50000 0.50000 0.0142(7) 0.01008 Uiso Mn

loop_
_publcif_info_datablock.id
_publcif_info_datablock.publ_exptl
_publcif_info_datablock.publ_geom
_publcif_info_datablock.structure
{eb163428-54d3-4116-b829-a269968da431} ? ? ?
{d5f9e3f5-70ad-42d7-baff-8cab751434f3} y y y

loop_
_publcif_info_exptl_table_extra_item
?

loop_
_publcif_info_exptl_table_header_item
?

loop_
_publcif_info_tables.block_id
_publcif_info_tables.reference_item
{eb163428-54d3-4116-b829-a269968da431} _publcif_info_datablock.publ_exptl

loop_
_publcif_info_cif.paper_type
EX



loop_
_refln_index_h
_refln_index_k
_refln_index_l
_refln_mult
_pd_refln_phase_id
_refln_observed_status
_refln_f_squared_meas
_refln_f_squared_calc
_refln_phase_calc
_refln_d_spacing
1 0 0 6 1 o 1.1587 0.8299 180.00 3.98346
1 1 0 12 1 o 0.2453 0.1855 0.00 2.81673
1 1 1 8 1 o 2.1742 1.5158 0.00 2.29985
2 0 0 6 1 o 8.4175 6.0608 0.00 1.99173
2 1 0 24 1 o 1.0338 0.7311 180.00 1.78146
2 1 1 24 1 o 0.2471 0.1568 0.00 1.62624
2 2 0 12 1 o 6.8332 4.7938 0.00 1.40837
2 2 1 24 1 o 0.9145 0.6405 180.00 1.32782
3 0 0 6 1 o 0.9211 0.6405 180.00 1.32782
3 1 0 24 1 o 0.1782 0.1339 0.00 1.25968
3 1 1 24 1 o 1.1748 0.7639 0.00 1.20106
2 2 2 8 1 o 5.6008 3.8005 0.00 1.14993
3 2 0 24 1 o 0.7164 0.5586 180.00 1.10481
3 2 1 48 1 o 0.1610 0.1154 0.00 1.06462
4 0 0 6 1 o 4.5870 3.0200 0.00 0.99586
3 2 2 24 1 o 0.7236 0.4854 180.00 0.96613
4 1 0 24 1 o 0.7526 0.4854 180.00 0.96613
3 3 0 12 1 o 0.1938 0.1003 0.00 0.93891
4 1 1 24 1 o 0.1987 0.1003 0.00 0.93891
3 3 1 24 1 o 0.6203 0.3744 0.00 0.91387
4 2 0 24 1 o 3.7256 2.4052 0.00 0.89073
4 2 1 48 1 o 0.7004 0.4204 180.00 0.86926
3 3 2 24 1 o 0.1052 0.0877 0.00 0.84928
4 2 2 24 1 o 3.1105 1.9199 0.00 0.81312



# powder data simulated using PLATON:

data_cubic_2_ND_simulated_1.5482

_publcif_pd_cifplot 'simulated 2021-03-25'

