data_tetragonal_1_ND
 
_pd_block_id    KNN-Li2Mn_526K_300mm_varH
#==============================================================================             
# 9. INSTRUMENT CHARACTERIZATION                                                            
                                                                                            
_exptl_special_details                                                                      
; ?                                                                                         
;                                                                                           
                                                                                            
# if regions of the data are excluded, the reason(s) are supplied here:                     
_pd_proc_info_excluded_regions                                                              
; ?                                                                                         
;                                                                                           
                                                                                            
# The following item is used to identify the equipment used to record                       
# the powder pattern when the diffractogram was measured at a laboratory                    
# other than the authors' home institution, e.g. when neutron or synchrotron                
# radiation is used.                                                                        
                                                                                            
_pd_instr_location                                                                          
; ?                                                                                         
;                                                                                           
_pd_calibration_special_details           # description of the method used                  
                                          # to calibrate the instrument                     
; ?                                                                                         
;                                                                                           
                                                                                            
_diffrn_ambient_temperature    ?                                                            
_diffrn_source                 ?                                                            
_diffrn_source_target          ?                                                            
_diffrn_source_type            ?                                                            
_diffrn_measurement_device_type ?                                                            
_diffrn_detector               ?                                                            
_diffrn_detector_type          ?  # make or model of detector                               
                                                                                            
_pd_meas_scan_method           ?  # options are 'step', 'cont',                             
                                  # 'tof', 'fixed' or                                       
                                  # 'disp' (= dispersive)                                   
_pd_meas_special_details                                                                    
;  ?                                                                                        
;                                                                                           
                                                                                            
# The following two items identify the program(s) used (if appropriate).                    
_computing_data_collection        ?                                                         
_computing_data_reduction         ?                                                         
                                                                                            
# Describe any processing performed on the data, prior to refinement.                       
# For example: a manual Lp correction or a precomputed absorption correction                
_pd_proc_info_data_reduction      ?                                                         
                                                                                            
# The following item is used for angular dispersive measurements only.                      
                                                                                            
_diffrn_radiation_monochromator   ?                                                         
                                                                                            
# The following items are used to define the size of the instrument.                        
# Not all distances are appropriate for all instrument types.                               
                                                                                            
_pd_instr_dist_src/mono           ?                                                         
_pd_instr_dist_mono/spec          ?                                                         
_pd_instr_dist_src/spec           ?                                                         
_pd_instr_dist_spec/anal          ?                                                         
_pd_instr_dist_anal/detc          ?                                                         
_pd_instr_dist_spec/detc          ?                                                         
                                                                                            
# 10. Specimen size and mounting information                                                
                                                                                            
# The next three fields give the specimen dimensions in mm.  The equatorial                 
# plane contains the incident and diffracted beam.                                          
                                                                                            
_pd_spec_size_axial               ?       # perpendicular to                                
                                          # equatorial plane                                
                                                                                            
_pd_spec_size_equat               ?       # parallel to                                     
                                          # scattering vector                               
                                          # in transmission                                 
                                                                                            
_pd_spec_size_thick               ?       # parallel to                                     
                                          # scattering vector                               
                                          # in reflection                                   
                                                                                            
_pd_spec_mounting                         # This field should be                            
                                          # used to give details of the                     
                                          # container.                                      
; ?                                                                                         
;                                                                                           
                                                                                            
_pd_spec_mount_mode               ?       # options are 'reflection'                        
                                          # or 'transmission'                               
                                                                                            
_pd_spec_shape                    ?       # options are 'cylinder'                          
                                          # 'flat_sheet' or 'irregular'                     
                                                                                            
     
_diffrn_radiation_probe                neutrons 
_diffrn_radiation_wavelength            1.5482
     
#  The following profile R-factors are NOT CORRECTED for background
#  The sum is extended to all non-excluded points.
#  These are the current CIF standard
 
_pd_proc_ls_prof_R_factor               15.2787
_pd_proc_ls_prof_wR_factor              21.2462
_pd_proc_ls_prof_wR_expected             1.6288
 
#  The following profile R-factors are CORRECTED for background
#  The sum is extended to all non-excluded points.
#  These items are not in the current CIF standard, but are defined above
 
_pd_proc_ls_prof_cR_factor               31.5707
_pd_proc_ls_prof_cwR_factor              34.3220
_pd_proc_ls_prof_cwR_expected             2.6312
 
#  The following items are not in the CIF standard, but are defined above
 
_pd_proc_ls_prof_chi2               170.1469
_pd_proc_ls_prof_echi2              172.5499
  
_pd_proc_ls_background_function   
;   FullProf Background function number  
;                                                                              
                                                                               
_exptl_absorpt_process_details                                                 
;   FullProf Absorption/surface roughness correction    
 No correction is applied ?.                                                   
;                                                                              
                                                                               
_pd_proc_ls_profile_function                                                   
;                                                                              
;                                                                              
_pd_proc_ls_peak_cutoff 0.00500                                                
_pd_calc_method  "   Rietveld Refinement" 
                                                                               
#---- raw/calc data loop -----   
_pd_meas_2theta_range_min       0.950000
_pd_meas_2theta_range_max     151.899994
_pd_meas_2theta_range_inc       0.050019
_pd_proc_2theta_range_min       0.941440
_pd_proc_2theta_range_max     151.891434
_pd_proc_2theta_range_inc       0.050019
 
loop_
_pd_proc_point_id
_pd_proc_2theta_corrected   
_pd_proc_intensity_total
_pd_calc_intensity_total
_pd_proc_intensity_bkg_calc
 
   183    10.0414    2061(167)          1905.2827         1905.2827                                                                 
   184    10.0914    2134(169)          1905.2827         1905.2827                                                                 
   185    10.1414    1898(159)          1905.2827         1905.2827                                                                 
   186    10.1914    2038(164)          1905.2827         1905.2827                                                                 
   187    10.2414    2011(163)          1905.2827         1905.2827                                                                 
   188    10.2914    2088(165)          1905.2827         1905.2827                                                                 
   189    10.3414    2128(166)          1905.2827         1905.2827                                                                 
   190    10.3914    2148(166)          1905.2827         1905.2827                                                                 
   191    10.4414    2032(161)          1905.2827         1905.2827                                                                 
   192    10.4914    2134(165)          1905.2827         1905.2827                                                                 
   193    10.5414    2166(166)          1905.2827         1905.2827                                                                 
   194    10.5914    2089(162)          1905.2827         1905.2827                                                                 
   195    10.6414    1976(157)          1905.2827         1905.2827                                                                 
   196    10.6914    2110(162)          1905.2827         1905.2827                                                                 
   197    10.7414    2042(159)          1905.2827         1905.2827                                                                 
   198    10.7914    1953(155)          1905.2827         1905.2827                                                                 
   199    10.8414    2064(159)          1905.2827         1905.2827                                                                 
   200    10.8914    2011(156)          1905.2827         1905.2827                                                                 
   201    10.9414    1972(154)          1905.2827         1905.2827                                                                 
   202    10.9914    1825(148)          1905.2827         1905.2827                                                                 
   203    11.0414    1843(148)          1905.2827         1905.2827                                                                 
   204    11.0914    1920(151)          1905.2827         1905.2827                                                                 
   205    11.1414    1959(152)          1905.2827         1905.2827                                                                 
   206    11.1914    2038(154)          1905.2827         1905.2827                                                                 
   207    11.2414    2138(158)          1905.2827         1905.2827                                                                 
   208    11.2914    1912(149)          1905.2827         1905.2827                                                                 
   209    11.3414    1822(145)          1905.2827         1905.2827                                                                 
   210    11.3914    1971(150)          1905.2827         1905.2827                                                                 
   211    11.4414    2004(151)          1905.2827         1905.2827                                                                 
   212    11.4914    2017(151)          1905.2827         1905.2827                                                                 
   213    11.5414    1928(147)          1905.2827         1905.2827                                                                 
   214    11.5914    1816(142)          1905.2827         1905.2827                                                                 
   215    11.6414    2023(150)          1905.2827         1905.2827                                                                 
   216    11.6914    1901(145)          1905.2827         1905.2827                                                                 
   217    11.7414    1891(144)          1906.0183         1906.0183                                                                 
   218    11.7914    1872(143)          1905.0752         1905.0752                                                                 
   219    11.8414    1905(144)          1904.1322         1904.1322                                                                 
   220    11.8914    1872(142)          1903.1892         1903.1892                                                                 
   221    11.9414    1757(137)          1902.2461         1902.2461                                                                 
   222    11.9914    1925(143)          1901.3723         1901.3031                                                                 
   223    12.0414    1950(144)          1900.4301         1900.3601                                                                 
   224    12.0914    1996(145)          1899.4877         1899.4170                                                                 
   225    12.1414    1984(144)          1898.5453         1898.4740                                                                 
   226    12.1914    1862(139)          1897.6030         1897.5310                                                                 
   227    12.2414    2006(144)          1896.6606         1896.5879                                                                 
   228    12.2914    2086(146)          1895.7184         1895.6449                                                                 
   229    12.3414    1953(141)          1894.7762         1894.7019                                                                 
   230    12.3914    1929(140)          1893.8340         1893.7589                                                                 
   231    12.4414    1842(136)          1893.0328         1892.8158                                                                 
   232    12.4914    1820(135)          1892.0920         1891.8728                                                                 
   233    12.5414    1963(140)          1891.1512         1890.9298                                                                 
   234    12.5914    1950(139)          1890.2104         1889.9867                                                                 
   235    12.6414    1921(138)          1889.2698         1889.0437                                                                 
   236    12.6914    1904(137)          1888.3291         1888.1007                                                                 
   237    12.7414    2039(141)          1887.3883         1887.1576                                                                 
   238    12.7914    2005(139)          1886.4478         1886.2146                                                                 
   239    12.8414    1895(135)          1885.5072         1885.2716                                                                 
   240    12.8914    1922(136)          1884.5665         1884.3285                                                                 
   241    12.9414    1937(136)          1883.6261         1883.3855                                                                 
   242    12.9914    1940(136)          1882.6857         1882.4425                                                                 
   243    13.0414    1860(133)          1881.7451         1881.4994                                                                 
   244    13.0914    2009(137)          1880.8048         1880.5564                                                                 
   245    13.1414    1980(136)          1879.8645         1879.6134                                                                 
   246    13.1914    2022(137)          1878.9242         1878.6703                                                                 
   247    13.2414    1824(130)          1877.9839         1877.7273                                                                 
   248    13.2914    1829(130)          1877.0438         1876.7843                                                                 
   249    13.3414    1807(128)          1876.1035         1875.8412                                                                 
   250    13.3914    1845(129)          1875.1635         1874.8982                                                                 
   251    13.4414    1810(128)          1874.2235         1873.9552                                                                 
   252    13.4914    1809(127)          1873.2834         1873.0122                                                                 
   253    13.5414    1989(133)          1872.3435         1872.0691                                                                 
   254    13.5914    1893(130)          1871.4036         1871.1261                                                                 
   255    13.6414    1903(130)          1870.4637         1870.1831                                                                 
   256    13.6914    1938(131)          1869.5239         1869.2400                                                                 
   257    13.7414    1765(124)          1868.5842         1868.2970                                                                 
   258    13.7914    1747(123)          1867.6445         1867.3540                                                                 
   259    13.8414    1980(131)          1866.7048         1866.4109                                                                 
   260    13.8914    1929(129)          1865.7654         1865.4679                                                                 
   261    13.9414    1928(129)          1864.8259         1864.5249                                                                 
   262    13.9914    1893(127)          1863.8864         1863.5818                                                                 
   263    14.0414    1794(123)          1862.9470         1862.6388                                                                 
   264    14.0914    1870(126)          1862.0078         1861.6958                                                                 
   265    14.1414    1860(125)          1861.0685         1860.7527                                                                 
   266    14.1914    1889(126)          1860.1293         1859.8097                                                                 
   267    14.2414    1838(124)          1859.1903         1858.8667                                                                 
   268    14.2914    1800(122)          1858.2511         1857.9236                                                                 
   269    14.3414    1855(123)          1857.3123         1856.9806                                                                 
   270    14.3914    1968(127)          1856.3734         1856.0376                                                                 
   271    14.4414    1850(123)          1855.4347         1855.0946                                                                 
   272    14.4914    1838(122)          1854.4958         1854.1515                                                                 
   273    14.5414    1823(121)          1853.5573         1853.2085                                                                 
   274    14.5914    1936(124)          1852.6187         1852.2654                                                                 
   275    14.6414    1794(119)          1851.6802         1851.3224                                                                 
   276    14.6914    1817(120)          1850.7419         1850.3794                                                                 
   277    14.7414    1867(121)          1849.8037         1849.4364                                                                 
   278    14.7914    1796(119)          1848.8654         1848.4933                                                                 
   279    14.8414    1944(123)          1847.9274         1847.5503                                                                 
   280    14.8914    1912(122)          1846.9894         1846.6073                                                                 
   281    14.9414    1732(116)          1846.0515         1845.6642                                                                 
   282    14.9914    1783(117)          1845.1138         1844.7212                                                                 
   283    15.0414    1805(117)          1844.1761         1843.7782                                                                 
   284    15.0914    1846(118)          1843.2384         1842.8351                                                                 
   285    15.1414    1756(115)          1842.3010         1841.8921                                                                 
   286    15.1914    1870(119)          1841.3638         1840.9491                                                                 
   287    15.2414    1774(115)          1840.4265         1840.0060                                                                 
   288    15.2914    1751(114)          1839.4894         1839.0630                                                                 
   289    15.3414    1789(115)          1838.5525         1838.1200                                                                 
   290    15.3914    1781(115)          1837.6157         1837.1770                                                                 
   291    15.4414    1814(115)          1836.6790         1836.2339                                                                 
   292    15.4914    1812(115)          1835.7424         1835.2909                                                                 
   293    15.5414    1757(113)          1834.8060         1834.3479                                                                 
   294    15.5914    1817(115)          1833.8698         1833.4048                                                                 
   295    15.6414    1888(117)          1832.9337         1832.4618                                                                 
   296    15.6914    1770(113)          1831.9977         1831.5188                                                                 
   297    15.7414    1640(108)          1831.0619         1830.5757                                                                 
   298    15.7914    1784(112)          1830.1262         1829.6327                                                                 
   299    15.8414    1721(110)          1829.1908         1828.6897                                                                 
   300    15.8914    1584(105)          1828.2555         1827.7466                                                                 
   301    15.9414    1640(107)          1827.3204         1826.8036                                                                 
   302    15.9914    1706(109)          1826.3855         1825.8606                                                                 
   303    16.0414    1673(108)          1825.4508         1824.9175                                                                 
   304    16.0914    1674(107)          1824.5162         1823.9745                                                                 
   305    16.1414    1603(105)          1823.5820         1823.0315                                                                 
   306    16.1914    1669(107)          1822.6478         1822.0884                                                                 
   307    16.2414    1725(108)          1821.7140         1821.1454                                                                 
   308    16.2914    1654(106)          1820.7804         1820.2024                                                                 
   309    16.3414    1743(108)          1819.8468         1819.2593                                                                 
   310    16.3914    1873(112)          1818.9137         1818.3163                                                                 
   311    16.4414    1688(106)          1817.9808         1817.3733                                                                 
   312    16.4914    1754(108)          1817.0480         1816.4302                                                                 
   313    16.5414    1771(108)          1816.1157         1815.4872                                                                 
   314    16.5914    1659(104)          1815.1836         1814.5442                                                                 
   315    16.6414    1714(106)          1814.2517         1813.6012                                                                 
   316    16.6914    1881(111)          1813.3202         1812.6581                                                                 
   317    16.7414    1682(104)          1812.3889         1811.7151                                                                 
   318    16.7914    1688(104)          1811.4580         1810.7721                                                                 
   319    16.8414    1797(107)          1810.5273         1809.8290                                                                 
   320    16.8914    1784(107)          1809.5972         1808.8860                                                                 
   321    16.9414    1751(105)          1808.6671         1807.9429                                                                 
   322    16.9914    1787(106)          1807.7377         1806.9999                                                                 
   323    17.0414    1707(104)          1806.8086         1806.0569                                                                 
   324    17.0914    1825(107)          1805.8799         1805.1139                                                                 
   325    17.1414    1699(103)          1804.9514         1804.1708                                                                 
   326    17.1914    1679(102)          1804.0236         1803.2278                                                                 
   327    17.2414    1780(105)          1803.0961         1802.2848                                                                 
   328    17.2914    1779(105)          1802.1692         1801.3418                                                                 
   329    17.3414    1644(100)          1801.2426         1800.3987                                                                 
   330    17.3914    1648(100)          1800.3165         1799.4557                                                                 
   331    17.4414    1733(103)          1799.3910         1798.5126                                                                 
   332    17.4914    1612(99)          1798.4661         1797.5696                                                                  
   333    17.5414    1639(99)          1797.5416         1796.6266                                                                  
   334    17.5914    1707(101)          1796.6178         1795.6835                                                                 
   335    17.6414    1628(98)          1795.6946         1794.7405                                                                  
   336    17.6914    1693(100)          1794.7721         1793.7975                                                                 
   337    17.7414    1764(102)          1793.8502         1792.8545                                                                 
   338    17.7914    1767(102)          1792.9288         1791.9114                                                                 
   339    17.8414    1805(103)          1792.0084         1790.9684                                                                 
   340    17.8914    1740(101)          1791.0887         1790.0254                                                                 
   341    17.9414    1780(102)          1790.1698         1789.0823                                                                 
   342    17.9914    1789(102)          1789.2517         1788.1393                                                                 
   343    18.0414    1716(99)          1788.3345         1787.1963                                                                  
   344    18.0914    1724(99)          1787.4181         1786.2532                                                                  
   345    18.1414    1728(99)          1786.5028         1785.3102                                                                  
   346    18.1914    1740(99)          1785.5884         1784.3672                                                                  
   347    18.2414    1750(99)          1784.6750         1783.4241                                                                  
   348    18.2914    1742(99)          1783.7628         1782.4811                                                                  
   349    18.3414    1739(99)          1782.8518         1781.5381                                                                  
   350    18.3914    1760(99)          1781.9419         1780.5950                                                                  
   351    18.4414    1757(99)          1781.0333         1779.6520                                                                  
   352    18.4914    1752(98)          1780.1261         1778.7090                                                                  
   353    18.5414    1800(99)          1779.2203         1777.7660                                                                  
   354    18.5914    1721(97)          1778.3158         1776.8229                                                                  
   355    18.6414    1718(97)          1777.4131         1775.8799                                                                  
   356    18.6914    1913(102)          1776.5118         1774.9368                                                                 
   357    18.7414    1710(96)          1775.6125         1773.9938                                                                  
   358    18.7914    1753(97)          1774.7151         1773.0508                                                                  
   359    18.8414    1674(95)          1773.8193         1772.1077                                                                  
   360    18.8914    1728(96)          1772.9259         1771.1647                                                                  
   361    18.9414    1784(97)          1772.0345         1770.2217                                                                  
   362    18.9914    1776(97)          1771.1455         1769.2787                                                                  
   363    19.0414    1821(98)          1770.2589         1768.3356                                                                  
   364    19.0914    1688(94)          1769.3749         1767.3926                                                                  
   365    19.1414    1641(92)          1768.4938         1766.4496                                                                  
   366    19.1914    1788(96)          1767.6154         1765.5065                                                                  
   367    19.2414    1846(98)          1766.7402         1764.5635                                                                  
   368    19.2914    1791(96)          1765.8685         1763.6205                                                                  
   369    19.3414    1811(96)          1765.0002         1762.6774                                                                  
   370    19.3914    1778(95)          1764.1359         1761.7344                                                                  
   371    19.4414    1812(96)          1763.2755         1760.7914                                                                  
   372    19.4914    1725(93)          1762.4194         1759.8483                                                                  
   373    19.5414    1778(95)          1761.5681         1758.9053                                                                  
   374    19.5914    1729(93)          1760.7218         1757.9623                                                                  
   375    19.6414    1802(95)          1759.8809         1757.0193                                                                  
   376    19.6914    1748(93)          1759.0457         1756.0762                                                                  
   377    19.7414    1764(93)          1758.2168         1755.1332                                                                  
   378    19.7914    1761(93)          1757.3947         1754.1902                                                                  
   379    19.8414    1752(93)          1756.5796         1753.2471                                                                  
   380    19.8914    1786(93)          1755.7726         1752.3041                                                                  
   381    19.9414    1661(90)          1754.9740         1751.3610                                                                  
   382    19.9914    1726(91)          1754.1847         1750.4180                                                                  
   383    20.0414    1711(91)          1753.4055         1749.4750                                                                  
   384    20.0914    1704(90)          1752.6373         1748.5320                                                                  
   385    20.1414    1617(88)          1751.8810         1747.5889                                                                  
   386    20.1914    1740(91)          1751.1379         1746.6459                                                                  
   387    20.2414    1835(93)          1750.4092         1745.7029                                                                  
   388    20.2914    1698(89)          1749.6960         1744.7598                                                                  
   389    20.3414    1750(91)          1749.0005         1743.8168                                                                  
   390    20.3914    1717(90)          1748.3241         1742.8738                                                                  
   391    20.4414    1703(89)          1747.6688         1741.9307                                                                  
   392    20.4914    1770(91)          1747.0372         1740.9877                                                                  
   393    20.5414    1841(92)          1746.4319         1740.0447                                                                  
   394    20.5914    1777(90)          1745.8557         1739.1016                                                                  
   395    20.6414    1865(92)          1745.3124         1738.1586                                                                  
   396    20.6914    1846(92)          1744.8059         1737.2156                                                                  
   397    20.7414    1842(91)          1744.3409         1736.2725                                                                  
   398    20.7914    1782(90)          1743.9231         1735.3295                                                                  
   399    20.8414    1720(88)          1743.5587         1734.3865                                                                  
   400    20.8914    1801(90)          1743.2554         1733.4434                                                                  
   401    20.9414    1734(88)          1743.0222         1732.5004                                                                  
   402    20.9914    1681(86)          1742.8699         1731.5574                                                                  
   403    21.0414    1735(88)          1742.8112         1730.6144                                                                  
   404    21.0914    1835(90)          1742.8618         1729.6713                                                                  
   405    21.1414    1827(90)          1743.0408         1728.7283                                                                  
   406    21.1914    1838(90)          1743.3713         1727.7852                                                                  
   407    21.2414    1779(88)          1743.8827         1726.8422                                                                  
   408    21.2914    1886(90)          1744.6113         1725.8992                                                                  
   409    21.3414    1816(89)          1745.6042         1724.9562                                                                  
   410    21.3914    1824(89)          1746.9259         1724.0131                                                                  
   411    21.4414    1765(87)          1748.6841         1723.0701                                                                  
   412    21.4914    1821(88)          1751.1255         1722.1271                                                                  
   413    21.5414    1777(87)          1754.9955         1721.1841                                                                  
   414    21.5914    1809(88)          1762.6968         1720.2410                                                                  
   415    21.6414    1891(89)          1781.4797         1719.2980                                                                  
   416    21.6914    2009(92)          1830.6880         1718.3549                                                                  
   417    21.7414    2210(96)          1954.7399         1717.4119                                                                  
   418    21.7914    2499(102)          2239.0178         1716.4689                                                                 
   419    21.8414    3340(118)          2817.2656         1715.5258                                                                 
   420    21.8914    5079(145)          3846.6218         1714.5828                                                                 
   421    21.9414    7526(177)          5433.0811         1713.6398                                                                 
   422    21.9914    10556(209)          7522.3379         1712.6968                                                                
   423    22.0414    14031(240)          9827.8926         1711.7537                                                                
   424    22.0914    17722(270)         11888.4795         1710.8107                                                                
   425    22.1414    20251(288)         13290.3906         1709.8677                                                                
   426    22.1914    21439(295)         13966.8379         1708.9246                                                                
   427    22.2414    22250(300)         14351.9600         1707.9816                                                                
   428    22.2914    24548(315)         15174.4277         1707.0386                                                                
   429    22.3414    27269(331)         16967.7148         1706.0955                                                                
   430    22.3914    31495(355)         19618.8711         1705.1525                                                                
   431    22.4414    35938(379)         22271.6875         1704.2095                                                                
   432    22.4914    38240(390)         23704.2422         1703.2664                                                                
   433    22.5414    36654(381)         23007.6875         1702.3234                                                                
   434    22.5914    31904(355)         20135.5098         1701.3804                                                                
   435    22.6414    25116(314)         15888.1172         1700.4373                                                                
   436    22.6914    17658(263)         11402.1133         1699.4943                                                                
   437    22.7414    11393(211)          7598.8149         1698.5513                                                                
   438    22.7914    6713(161)          4898.0522         1697.6082                                                                 
   439    22.8414    3990(124)          3257.9434         1696.6652                                                                 
   440    22.8914    2712(102)          2394.9211         1695.7222                                                                 
   441    22.9414    2126(90)          1996.5399         1694.7791                                                                  
   442    22.9914    1851(84)          1832.2393         1693.8361                                                                  
   443    23.0414    1882(84)          1769.2205         1692.8931                                                                  
   444    23.0914    1852(83)          1744.5775         1691.9500                                                                  
   445    23.1414    1749(81)          1733.0967         1691.0070                                                                  
   446    23.1914    1832(83)          1726.0292         1690.0640                                                                  
   447    23.2414    1855(83)          1720.6575         1689.1208                                                                  
   448    23.2914    1843(83)          1716.1622         1688.1779                                                                  
   449    23.3414    1810(82)          1712.2579         1687.2349                                                                  
   450    23.3914    1748(80)          1708.8062         1686.2919                                                                  
   451    23.4414    1682(78)          1705.7164         1685.3488                                                                  
   452    23.4914    1737(80)          1702.9225         1684.4058                                                                  
   453    23.5414    1681(78)          1700.3721         1683.4628                                                                  
   454    23.5914    1628(77)          1698.0243         1682.5197                                                                  
   455    23.6414    1687(78)          1695.8466         1681.5767                                                                  
   456    23.6914    1727(79)          1693.8125         1680.6337                                                                  
   457    23.7414    1727(79)          1691.9005         1679.6906                                                                  
   458    23.7914    1775(79)          1690.0934         1678.7476                                                                  
   459    23.8414    1881(82)          1688.3762         1677.8046                                                                  
   460    23.8914    1794(80)          1686.7371         1676.8616                                                                  
   461    23.9414    1688(77)          1685.1656         1675.9185                                                                  
   462    23.9914    1669(76)          1683.6537         1674.9755                                                                  
   463    24.0414    1730(78)          1682.1938         1674.0325                                                                  
   464    24.0914    1812(79)          1680.7798         1673.0894                                                                  
   465    24.1414    1728(77)          1679.4065         1672.1464                                                                  
   466    24.1914    1716(77)          1678.0692         1671.2032                                                                  
   467    24.2414    1719(77)          1676.7644         1670.2603                                                                  
   468    24.2914    1713(77)          1675.4883         1669.3173                                                                  
   469    24.3414    1718(77)          1674.2380         1668.3743                                                                  
   470    24.3914    1666(75)          1673.0109         1667.4312                                                                  
   471    24.4414    1678(75)          1671.8048         1666.4882                                                                  
   472    24.4914    1668(75)          1670.6178         1665.5452                                                                  
   473    24.5414    1749(77)          1669.4479         1664.6021                                                                  
   474    24.5914    1753(77)          1668.2937         1663.6591                                                                  
   475    24.6414    1693(75)          1667.1538         1662.7161                                                                  
   476    24.6914    1719(76)          1666.0269         1661.7729                                                                  
   477    24.7414    1780(77)          1664.9119         1660.8300                                                                  
   478    24.7914    1748(76)          1663.8079         1659.8870                                                                  
   479    24.8414    1669(74)          1662.7139         1658.9438                                                                  
   480    24.8914    1697(75)          1661.6290         1658.0009                                                                  
   481    24.9414    1734(75)          1660.5529         1657.0579                                                                  
   482    24.9914    1785(76)          1659.4844         1656.1147                                                                  
   483    25.0414    1654(73)          1658.4233         1655.1718                                                                  
   484    25.0914    1805(76)          1657.3690         1654.2288                                                                  
   485    25.1414    1826(77)          1656.3208         1653.2856                                                                  
   486    25.1914    1764(75)          1655.2786         1652.3427                                                                  
   487    25.2414    1689(73)          1654.2418         1651.3997                                                                  
   488    25.2914    1706(74)          1653.2100         1650.4567                                                                  
   489    25.3414    1738(74)          1652.1829         1649.5135                                                                  
   490    25.3914    1735(74)          1651.1602         1648.5706                                                                  
   491    25.4414    1888(77)          1650.1415         1647.6274                                                                  
   492    25.4914    1806(75)          1649.1268         1646.6844                                                                  
   493    25.5414    1668(72)          1648.1158         1645.7415                                                                  
   494    25.5914    1684(72)          1647.1080         1644.7983                                                                  
   495    25.6414    1710(73)          1646.1036         1643.8553                                                                  
   496    25.6914    1803(75)          1645.1022         1642.9124                                                                  
   497    25.7414    1689(72)          1644.1036         1641.9694                                                                  
   498    25.7914    1739(73)          1643.1077         1641.0264                                                                  
   499    25.8414    1703(72)          1642.1143         1640.0833                                                                  
   500    25.8914    1780(74)          1641.1233         1639.1403                                                                  
   501    25.9414    1733(72)          1640.1344         1638.1971                                                                  
   502    25.9914    1731(72)          1639.1479         1637.2542                                                                  
   503    26.0414    1679(71)          1638.1635         1636.3112                                                                  
   504    26.0914    1628(70)          1637.1807         1635.3680                                                                  
   505    26.1414    1635(70)          1636.2001         1634.4250                                                                  
   506    26.1914    1759(72)          1635.2211         1633.4821                                                                  
   507    26.2414    1760(72)          1634.2438         1632.5391                                                                  
   508    26.2914    1729(71)          1633.2681         1631.5959                                                                  
   509    26.3414    1667(70)          1632.2939         1630.6530                                                                  
   510    26.3914    1718(71)          1631.3212         1629.7100                                                                  
   511    26.4414    1693(70)          1630.3499         1628.7668                                                                  
   512    26.4914    1684(70)          1629.3799         1627.8239                                                                  
   513    26.5414    1744(71)          1628.5769         1627.0464                                                                  
   514    26.5914    1744(71)          1630.3711         1628.8650                                                                  
   515    26.6414    1731(71)          1632.1663         1630.6833                                                                  
   516    26.6914    1733(70)          1633.9628         1632.5018                                                                  
   517    26.7414    1690(69)          1635.7603         1634.3203                                                                  
   518    26.7914    1589(67)          1637.5590         1636.1388                                                                  
   519    26.8414    1618(68)          1639.3586         1637.9573                                                                  
   520    26.8914    1639(68)          1641.1593         1639.7756                                                                  
   521    26.9414    1713(69)          1642.9611         1641.5942                                                                  
   522    26.9914    1755(70)          1644.7637         1643.4126                                                                  
   523    27.0414    1797(71)          1646.5673         1645.2311                                                                  
   524    27.0914    1637(67)          1648.3717         1647.0496                                                                  
   525    27.1414    1695(69)          1650.1771         1648.8680                                                                  
   526    27.1914    1664(68)          1651.9835         1650.6865                                                                  
   527    27.2414    1671(68)          1653.7905         1652.5049                                                                  
   528    27.2914    1716(69)          1655.5985         1654.3234                                                                  
   529    27.3414    1629(67)          1657.4073         1656.1418                                                                  
   530    27.3914    1673(67)          1659.2169         1657.9603                                                                  
   531    27.4414    1805(70)          1661.0275         1659.7788                                                                  
   532    27.4914    1719(68)          1662.8387         1661.5973                                                                  
   533    27.5414    1625(66)          1664.6508         1663.4156                                                                  
   534    27.5914    1657(67)          1666.4636         1665.2341                                                                  
   535    27.6414    1720(68)          1668.2772         1667.0526                                                                  
   536    27.6914    1683(67)          1670.0918         1668.8711                                                                  
   537    27.7414    1724(68)          1671.9071         1670.6896                                                                  
   538    27.7914    1688(67)          1673.7230         1672.5079                                                                  
   539    27.8414    1675(66)          1675.5400         1674.3265                                                                  
   540    27.8914    1723(67)          1677.3577         1676.1449                                                                  
   541    27.9414    1726(67)          1679.1763         1677.9634                                                                  
   542    27.9914    1724(67)          1680.9956         1679.7819                                                                  
   543    28.0414    1739(67)          1682.8159         1681.6003                                                                  
   544    28.0914    1701(66)          1684.6370         1683.4188                                                                  
   545    28.1414    1713(66)          1686.4589         1685.2372                                                                  
   546    28.1914    1758(67)          1688.2820         1687.0558                                                                  
   547    28.2414    1694(66)          1690.1057         1688.8741                                                                  
   548    28.2914    1679(65)          1691.9305         1690.6926                                                                  
   549    28.3414    1676(65)          1693.7565         1692.5111                                                                  
   550    28.3914    1660(65)          1695.5833         1694.3296                                                                  
   551    28.4414    1731(66)          1697.4113         1696.1481                                                                  
   552    28.4914    1716(66)          1699.2401         1697.9664                                                                  
   553    28.5414    1690(65)          1701.0703         1699.7849                                                                  
   554    28.5914    1704(65)          1702.9017         1701.6034                                                                  
   555    28.6414    1677(65)          1704.7344         1703.4219                                                                  
   556    28.6914    1701(65)          1706.5684         1705.2404                                                                  
   557    28.7414    1659(64)          1708.4037         1707.0588                                                                  
   558    28.7914    1708(65)          1710.2404         1708.8772                                                                  
   559    28.8414    1707(65)          1712.0786         1710.6957                                                                  
   560    28.8914    1658(64)          1713.9186         1712.5142                                                                  
   561    28.9414    1669(64)          1715.7601         1714.3326                                                                  
   562    28.9914    1615(63)          1717.6036         1716.1511                                                                  
   563    29.0414    1575(62)          1719.4489         1717.9695                                                                  
   564    29.0914    1612(62)          1721.2963         1719.7881                                                                  
   565    29.1414    1686(64)          1723.1458         1721.6064                                                                  
   566    29.1914    1782(65)          1724.9976         1723.4249                                                                  
   567    29.2414    1756(65)          1726.8519         1725.2434                                                                  
   568    29.2914    1744(64)          1729.0803         1727.0619                                                                  
   569    29.3414    1711(64)          1730.9438         1728.8804                                                                  
   570    29.3914    1741(64)          1732.8104         1730.6987                                                                  
   571    29.4414    1715(64)          1734.6807         1732.5173                                                                  
   572    29.4914    1629(62)          1736.5542         1734.3357                                                                  
   573    29.5414    1713(63)          1738.4319         1736.1542                                                                  
   574    29.5914    1612(61)          1740.3138         1737.9727                                                                  
   575    29.6414    1651(62)          1742.2003         1739.7911                                                                  
   576    29.6914    1701(63)          1744.0919         1741.6096                                                                  
   577    29.7414    1664(62)          1745.9889         1743.4280                                                                  
   578    29.7914    1726(63)          1747.8921         1745.2465                                                                  
   579    29.8414    1675(62)          1749.8019         1747.0649                                                                  
   580    29.8914    1682(62)          1751.7189         1748.8834                                                                  
   581    29.9414    1764(63)          1753.6439         1750.7019                                                                  
   582    29.9914    1681(62)          1755.5779         1752.5204                                                                  
   583    30.0414    1720(62)          1757.5215         1754.3387                                                                  
   584    30.0914    1709(62)          1759.4762         1756.1572                                                                  
   585    30.1414    1788(63)          1761.4431         1757.9757                                                                  
   586    30.1914    1739(62)          1763.4236         1759.7942                                                                  
   587    30.2414    1787(63)          1765.4196         1761.6127                                                                  
   588    30.2914    1695(61)          1767.4329         1763.4312                                                                  
   589    30.3414    1576(59)          1769.4657         1765.2496                                                                  
   590    30.3914    1611(60)          1771.5208         1767.0680                                                                  
   591    30.4414    1721(62)          1773.6013         1768.8865                                                                  
   592    30.4914    1679(61)          1775.7112         1770.7050                                                                  
   593    30.5414    1754(62)          1777.8546         1772.5234                                                                  
   594    30.5914    1618(59)          1780.0371         1774.3419                                                                  
   595    30.6414    1613(59)          1782.2651         1776.1604                                                                  
   596    30.6914    1675(60)          1784.5466         1777.9789                                                                  
   597    30.7414    1697(60)          1786.8910         1779.7972                                                                  
   598    30.7914    1688(60)          1789.3104         1781.6157                                                                  
   599    30.8414    1796(62)          1791.8198         1783.4342                                                                  
   600    30.8914    1684(60)          1794.4379         1785.2527                                                                  
   601    30.9414    1673(60)          1797.1886         1787.0712                                                                  
   602    30.9914    1698(60)          1800.1034         1788.8896                                                                  
   603    31.0414    1701(60)          1803.2260         1790.7080                                                                  
   604    31.0914    1716(60)          1806.6289         1792.5265                                                                  
   605    31.1414    1793(61)          1810.4753         1794.3450                                                                  
   606    31.1914    1668(59)          1815.2482         1796.1635                                                                  
   607    31.2414    1702(60)          1822.4846         1797.9819                                                                  
   608    31.2914    1771(61)          1836.7792         1799.8003                                                                  
   609    31.3414    1806(61)          1870.2544         1801.6189                                                                  
   610    31.3914    1948(63)          1950.2865         1803.4373                                                                  
   611    31.4414    2198(67)          2128.4824         1805.2557                                                                  
   612    31.4914    2574(73)          2482.8228         1807.0742                                                                  
   613    31.5414    3470(84)          3099.6948         1808.8926                                                                  
   614    31.5914    4788(99)          4027.1814         1810.7112                                                                  
   615    31.6414    6706(117)          5213.3350         1812.5295                                                                 
   616    31.6914    8706(133)          6472.4595         1814.3481                                                                 
   617    31.7414    10595(147)          7523.4648         1816.1665                                                                
   618    31.7914    11990(156)          8106.7417         1817.9850                                                                
   619    31.8414    12381(158)          8124.4990         1819.8035                                                                
   620    31.8914    12030(156)          7690.6230         1821.6218                                                                
   621    31.9414    10643(146)          7025.2393         1823.4404                                                                
   622    31.9914    9440(137)          6304.9082         1825.2588                                                                 
   623    32.0414    8074(127)          5592.7358         1827.0773                                                                 
   624    32.0914    6717(115)          4877.1611         1828.8958                                                                 
   625    32.1414    5695(106)          4155.7661         1830.7142                                                                 
   626    32.1914    4497(94)          3471.1660         1832.5327                                                                  
   627    32.2414    3551(83)          2887.2041         1834.3511                                                                  
   628    32.2914    2798(74)          2449.4980         1836.1696                                                                  
   629    32.3414    2304(67)          2163.4836         1837.9880                                                                  
   630    32.3914    1964(62)          2000.5336         1839.8066                                                                  
   631    32.4414    1802(59)          1919.4230         1841.6250                                                                  
   632    32.4914    1841(59)          1883.8746         1843.4435                                                                  
   633    32.5414    1808(59)          1870.0535         1845.2618                                                                  
   634    32.5914    1741(58)          1865.1401         1847.0803                                                                  
   635    32.6414    1729(57)          1863.7750         1848.8989                                                                  
   636    32.6914    1719(57)          1863.6591         1850.7173                                                                  
   637    32.7414    1716(57)          1864.0580         1852.5358                                                                  
   638    32.7914    1710(57)          1864.7321         1854.3542                                                                  
   639    32.8414    1809(58)          1865.5929         1856.1726                                                                  
   640    32.8914    1798(58)          1866.5979         1857.9912                                                                  
   641    32.9414    1759(57)          1867.7186         1859.8097                                                                  
   642    32.9914    1709(56)          1868.9343         1861.6281                                                                  
   643    33.0414    1697(56)          1870.2291         1863.4465                                                                  
   644    33.0914    1735(57)          1871.5900         1865.2649                                                                  
   645    33.1414    1770(57)          1873.0067         1867.0835                                                                  
   646    33.1914    1830(58)          1874.4709         1868.9020                                                                  
   647    33.2414    1877(58)          1875.9757         1870.7203                                                                  
   648    33.2914    1872(58)          1877.5155         1872.5388                                                                  
   649    33.3414    1735(56)          1879.0857         1874.3573                                                                  
   650    33.3914    1775(57)          1880.6824         1876.1758                                                                  
   651    33.4414    1709(55)          1882.3021         1877.9943                                                                  
   652    33.4914    1720(56)          1883.9424         1879.8127                                                                  
   653    33.5414    1660(54)          1885.6005         1881.6311                                                                  
   654    33.5914    1733(56)          1887.2747         1883.4496                                                                  
   655    33.6414    1661(54)          1888.9633         1885.2681                                                                  
   656    33.6914    1730(55)          1890.6646         1887.0865                                                                  
   657    33.7414    1763(56)          1892.3774         1888.9050                                                                  
   658    33.7914    1807(56)          1894.1007         1890.7234                                                                  
   659    33.8414    1741(55)          1895.8334         1892.5419                                                                  
   660    33.8914    1755(55)          1897.5748         1894.3605                                                                  
   661    33.9414    1789(56)          1899.3241         1896.1790                                                                  
   662    33.9914    1814(56)          1901.0803         1897.9973                                                                  
   663    34.0414    1771(55)          1902.8434         1899.8158                                                                  
   664    34.0914    1778(55)          1904.6124         1901.6342                                                                  
   665    34.1414    1765(55)          1906.3875         1903.4528                                                                  
   666    34.1914    1797(55)          1908.1676         1905.2712                                                                  
   667    34.2414    1805(55)          1909.9525         1907.0896                                                                  
   668    34.2914    1750(55)          1911.7422         1908.9081                                                                  
   669    34.3414    1722(54)          1913.5364         1910.7266                                                                  
   670    34.3914    1753(54)          1915.3346         1912.5450                                                                  
   671    34.4414    1813(55)          1917.1367         1914.3635                                                                  
   672    34.4914    1747(54)          1918.9424         1916.1819                                                                  
   673    34.5414    1808(55)          1920.7518         1918.0004                                                                  
   674    34.5914    1772(54)          1922.8497         1919.8188                                                                  
   675    34.6414    1743(54)          1924.6688         1921.6375                                                                  
   676    34.6914    1702(53)          1926.4907         1923.4558                                                                  
   677    34.7414    1736(54)          1928.3160         1925.2743                                                                  
   678    34.7914    1828(55)          1930.1443         1927.0927                                                                  
   679    34.8414    1816(55)          1930.6960         1927.6316                                                                  
   680    34.8914    1838(55)          1929.8646         1926.7842                                                                  
   681    34.9414    1788(54)          1929.0360         1925.9368                                                                  
   682    34.9914    1712(53)          1928.2103         1925.0894                                                                  
   683    35.0414    1751(53)          1927.3875         1924.2419                                                                  
   684    35.0914    1770(53)          1926.5676         1923.3945                                                                  
   685    35.1414    1816(54)          1925.7506         1922.5470                                                                  
   686    35.1914    1754(53)          1924.9365         1921.6996                                                                  
   687    35.2414    1784(53)          1924.1255         1920.8522                                                                  
   688    35.2914    1815(54)          1923.3175         1920.0048                                                                  
   689    35.3414    1841(54)          1922.5126         1919.1573                                                                  
   690    35.3914    1767(53)          1921.7107         1918.3099                                                                  
   691    35.4414    1776(53)          1920.9121         1917.4625                                                                  
   692    35.4914    1744(52)          1920.1167         1916.6151                                                                  
   693    35.5414    1879(54)          1919.3247         1915.7677                                                                  
   694    35.5914    1798(53)          1918.5363         1914.9203                                                                  
   695    35.6414    1813(53)          1917.7512         1914.0728                                                                  
   696    35.6914    1852(54)          1916.9700         1913.2253                                                                  
   697    35.7414    1808(53)          1916.1926         1912.3779                                                                  
   698    35.7914    1807(53)          1916.0607         1911.5305                                                                  
   699    35.8414    1824(53)          1915.2980         1910.6831                                                                  
   700    35.8914    1838(53)          1914.5398         1909.8357                                                                  
   701    35.9414    1822(53)          1913.7863         1908.9883                                                                  
   702    35.9914    1812(53)          1913.0376         1908.1409                                                                  
   703    36.0414    1790(52)          1912.2942         1907.2935                                                                  
   704    36.0914    1880(53)          1911.5563         1906.4460                                                                  
   705    36.1414    1819(52)          1910.8240         1905.5985                                                                  
   706    36.1914    1851(53)          1910.0978         1904.7511                                                                  
   707    36.2414    1899(53)          1909.3782         1903.9038                                                                  
   708    36.2914    2013(55)          1908.6652         1903.0564                                                                  
   709    36.3414    1894(53)          1907.9595         1902.2090                                                                  
   710    36.3914    1908(53)          1907.2614         1901.3615                                                                  
   711    36.4414    2094(56)          1906.5714         1900.5140                                                                  
   712    36.4914    2101(56)          1905.8903         1899.6666                                                                  
   713    36.5414    2129(56)          1905.2183         1898.8192                                                                  
   714    36.5914    2187(57)          1904.5564         1897.9718                                                                  
   715    36.6414    2201(57)          1903.9050         1897.1244                                                                  
   716    36.6914    2257(57)          1903.2651         1896.2770                                                                  
   717    36.7414    2277(58)          1902.6375         1895.4296                                                                  
   718    36.7914    2247(57)          1902.0231         1894.5822                                                                  
   719    36.8414    2085(55)          1901.4229         1893.7347                                                                  
   720    36.8914    2020(54)          1900.8380         1892.8872                                                                  
   721    36.9414    1958(53)          1900.2699         1892.0398                                                                  
   722    36.9914    1895(52)          1899.7197         1891.1924                                                                  
   723    37.0414    1878(52)          1899.1893         1890.3450                                                                  
   724    37.0914    1883(52)          1898.6803         1889.4976                                                                  
   725    37.1414    1787(50)          1898.1945         1888.6501                                                                  
   726    37.1914    1739(49)          1897.7343         1887.8027                                                                  
   727    37.2414    1811(50)          1897.3018         1886.9553                                                                  
   728    37.2914    1767(50)          1896.9000         1886.1079                                                                  
   729    37.3414    1796(50)          1896.5319         1885.2605                                                                  
   730    37.3914    1822(50)          1896.2009         1884.4130                                                                  
   731    37.4414    1892(51)          1895.9113         1883.5656                                                                  
   732    37.4914    1894(51)          1895.6671         1882.7181                                                                  
   733    37.5414    1887(51)          1895.4738         1881.8707                                                                  
   734    37.5914    1938(52)          1895.3372         1881.0234                                                                  
   735    37.6414    2013(53)          1895.2638         1880.1759                                                                  
   736    37.6914    2128(54)          1895.2616         1879.3285                                                                  
   737    37.7414    2146(54)          1895.3396         1878.4811                                                                  
   738    37.7914    2206(55)          1895.5083         1877.6337                                                                  
   739    37.8414    2211(55)          1895.7800         1876.7863                                                                  
   740    37.8914    2242(55)          1896.1692         1875.9388                                                                  
   741    37.9414    2181(54)          1896.6929         1875.0914                                                                  
   742    37.9914    2070(53)          1897.3712         1874.2440                                                                  
   743    38.0414    2114(53)          1898.2285         1873.3966                                                                  
   744    38.0914    2128(53)          1899.2939         1872.5492                                                                  
   745    38.1414    2172(54)          1900.6028         1871.7017                                                                  
   746    38.1914    2284(55)          1902.1980         1870.8542                                                                  
   747    38.2414    2513(58)          1904.1324         1870.0068                                                                  
   748    38.2914    2865(61)          1906.4718         1869.1594                                                                  
   749    38.3414    3383(67)          1909.2981         1868.3120                                                                  
   750    38.3914    4088(73)          1912.7156         1867.4646                                                                  
   751    38.4414    4788(79)          1916.8562         1866.6172                                                                  
   752    38.4914    5362(84)          1921.8933         1865.7698                                                                  
   753    38.5414    5688(86)          1928.0612         1864.9224                                                                  
   754    38.5914    5545(85)          1935.7155         1864.0750                                                                  
   755    38.6414    5339(83)          1945.5529         1863.2274                                                                  
   756    38.6914    5048(81)          1959.4257         1862.3800                                                                  
   757    38.7414    4358(75)          1983.1068         1861.5326                                                                  
   758    38.7914    3613(68)          2034.2859         1860.6852                                                                  
   759    38.8414    3259(64)          2161.7578         1859.8378                                                                  
   760    38.8914    3096(63)          2481.9077         1858.9904                                                                  
   761    38.9414    3694(68)          3228.0547         1858.1429                                                                  
   762    38.9914    5378(82)          4780.4478         1857.2955                                                                  
   763    39.0414    8552(104)          7607.9595         1856.4481                                                                 
   764    39.0914    14002(133)         12054.1719         1855.6007                                                                
   765    39.1414    21566(165)         17993.3652         1854.7532                                                                
   766    39.1914    30473(196)         24543.4395         1853.9058                                                                
   767    39.2414    39467(223)         30120.6895         1853.0585                                                                
   768    39.2914    45548(239)         32972.9062         1852.2111                                                                
   769    39.3414    47037(242)         32060.7578         1851.3636                                                                
   770    39.3914    43493(233)         27727.0488         1850.5161                                                                
   771    39.4414    35668(210)         21463.5781         1849.6687                                                                
   772    39.4914    26598(181)         15038.7666         1848.8213                                                                
   773    39.5414    18149(149)          9742.1250         1847.9739                                                                
   774    39.5914    11084(116)          6078.8022         1847.1265                                                                
   775    39.6414    6641(90)          3907.9805         1846.2791                                                                  
   776    39.6914    4050(70)          2789.9722         1845.4316                                                                  
   777    39.7414    2624(56)          2281.3428         1844.5842                                                                  
   778    39.7914    2220(51)          2071.1433         1843.7368                                                                  
   779    39.8414    1913(48)          1987.3008         1842.8894                                                                  
   780    39.8914    1816(46)          1951.0076         1842.0419                                                                  
   781    39.9414    1856(47)          1931.5234         1841.1945                                                                  
   782    39.9914    1884(47)          1918.3115         1840.3470                                                                  
   783    40.0414    1820(46)          1908.0149         1839.4996                                                                  
   784    40.0914    1827(46)          1899.5027         1838.6522                                                                  
   785    40.1414    1844(46)          1892.2872         1837.8048                                                                  
   786    40.1914    1767(45)          1886.0836         1836.9574                                                                  
   787    40.2414    1766(45)          1880.6901         1836.1100                                                                  
   788    40.2914    1825(46)          1875.9545         1835.2626                                                                  
   789    40.3414    1856(46)          1871.7589         1834.4152                                                                  
   790    40.3914    1854(46)          1868.0103         1833.5676                                                                  
   791    40.4414    1735(45)          1864.6355         1832.7202                                                                  
   792    40.4914    1791(45)          1861.5753         1831.8728                                                                  
   793    40.5414    1846(46)          1858.9069         1831.0254                                                                  
   794    40.5914    1822(45)          1856.3419         1830.1780                                                                  
   795    40.6414    1749(44)          1853.9724         1829.3306                                                                  
   796    40.6914    1726(44)          1851.7719         1828.4832                                                                  
   797    40.7414    1818(45)          1849.7180         1827.6357                                                                  
   798    40.7914    1775(45)          1847.7924         1826.7883                                                                  
   799    40.8414    1745(44)          1845.9792         1825.9409                                                                  
   800    40.8914    1802(45)          1844.2655         1825.0935                                                                  
   801    40.9414    1764(44)          1842.6396         1824.2461                                                                  
   802    40.9914    1715(43)          1841.0923         1823.3987                                                                  
   803    41.0414    1746(44)          1839.6150         1822.5513                                                                  
   804    41.0914    1800(44)          1838.2007         1821.7039                                                                  
   805    41.1414    1791(44)          1836.8429         1820.8563                                                                  
   806    41.1914    1801(44)          1835.5369         1820.0089                                                                  
   807    41.2414    1762(44)          1834.2776         1819.1615                                                                  
   808    41.2914    1703(43)          1833.0612         1818.3141                                                                  
   809    41.3414    1768(44)          1831.8839         1817.4667                                                                  
   810    41.3914    1773(44)          1830.7428         1816.6193                                                                  
   811    41.4414    1769(44)          1829.7828         1815.7719                                                                  
   812    41.4914    1676(42)          1828.7078         1814.9244                                                                  
   813    41.5414    1712(43)          1827.6619         1814.0770                                                                  
   814    41.5914    1712(43)          1826.7833         1813.2296                                                                  
   815    41.6414    1733(43)          1825.7916         1812.3821                                                                  
   816    41.6914    1770(43)          1824.8243         1811.5347                                                                  
   817    41.7414    1752(43)          1823.8804         1810.6873                                                                  
   818    41.7914    1679(42)          1822.9586         1809.8398                                                                  
   819    41.8414    1742(43)          1822.0035         1808.9924                                                                  
   820    41.8914    1752(43)          1821.1243         1808.1450                                                                  
   821    41.9414    1778(43)          1820.2649         1807.2976                                                                  
   822    41.9914    1754(43)          1819.4252         1806.4502                                                                  
   823    42.0414    1760(43)          1818.6046         1805.6028                                                                  
   824    42.0914    1806(43)          1817.7791         1804.7554                                                                  
   825    42.1414    1767(43)          1816.9966         1803.9080                                                                  
   826    42.1914    1766(42)          1816.2328         1803.0605                                                                  
   827    42.2414    1807(43)          1815.4878         1802.2131                                                                  
   828    42.2914    1853(43)          1814.7618         1801.3657                                                                  
   829    42.3414    1882(44)          1814.0551         1800.5183                                                                  
   830    42.3914    1798(43)          1813.3678         1799.6708                                                                  
   831    42.4414    1878(43)          1812.7006         1798.8234                                                                  
   832    42.4914    1781(42)          1812.0540         1797.9760                                                                  
   833    42.5414    1796(42)          1811.4285         1797.1285                                                                  
   834    42.5914    1809(42)          1810.8250         1796.2811                                                                  
   835    42.6414    1740(42)          1810.2444         1795.4337                                                                  
   836    42.6914    1743(42)          1809.6877         1794.5863                                                                  
   837    42.7414    1788(42)          1809.1561         1793.7389                                                                  
   838    42.7914    1805(42)          1808.6509         1792.8915                                                                  
   839    42.8414    1776(42)          1808.1736         1792.0441                                                                  
   840    42.8914    1806(42)          1807.7256         1791.1965                                                                  
   841    42.9414    1815(42)          1807.3092         1790.3491                                                                  
   842    42.9914    1805(42)          1806.9264         1789.5017                                                                  
   843    43.0414    1776(42)          1806.5795         1788.6543                                                                  
   844    43.0914    1770(42)          1806.2710         1787.8069                                                                  
   845    43.1414    1816(42)          1806.0040         1786.9595                                                                  
   846    43.1914    1768(42)          1805.7819         1786.1121                                                                  
   847    43.2414    1785(42)          1805.6083         1785.2646                                                                  
   848    43.2914    1817(42)          1805.4874         1784.4172                                                                  
   849    43.3414    1793(42)          1805.4241         1783.5698                                                                  
   850    43.3914    1772(42)          1805.4236         1782.7224                                                                  
   851    43.4414    1793(42)          1805.4922         1781.8750                                                                  
   852    43.4914    1829(42)          1805.6365         1781.0276                                                                  
   853    43.5414    1746(41)          1805.8646         1780.1802                                                                  
   854    43.5914    1736(41)          1806.1857         1779.3328                                                                  
   855    43.6414    1737(41)          1806.6097         1778.4852                                                                  
   856    43.6914    1763(41)          1807.1490         1777.6378                                                                  
   857    43.7414    1737(41)          1807.8174         1776.7904                                                                  
   858    43.7914    1771(42)          1808.6309         1775.9430                                                                  
   859    43.8414    1729(41)          1809.6083         1775.0956                                                                  
   860    43.8914    1847(42)          1810.7721         1774.2482                                                                  
   861    43.9414    1869(43)          1812.1481         1773.4008                                                                  
   862    43.9914    1824(42)          1813.7677         1772.5533                                                                  
   863    44.0414    1795(42)          1815.6682         1771.7059                                                                  
   864    44.0914    1862(43)          1817.8948         1770.8585                                                                  
   865    44.1414    1866(43)          1820.5022         1770.0110                                                                  
   866    44.1914    1881(43)          1823.5577         1769.1636                                                                  
   867    44.2414    1825(42)          1827.1447         1768.3162                                                                  
   868    44.2914    1814(42)          1831.3671         1767.4688                                                                  
   869    44.3414    1830(42)          1836.3580         1766.6213                                                                  
   870    44.3914    1853(43)          1842.2939         1765.7739                                                                  
   871    44.4414    1948(44)          1849.4315         1764.9265                                                                  
   872    44.4914    1884(43)          1858.2415         1764.0791                                                                  
   873    44.5414    1909(43)          1869.8560         1763.2317                                                                  
   874    44.5914    1911(43)          1887.4893         1762.3843                                                                  
   875    44.6414    1972(44)          1920.3588         1761.5367                                                                  
   876    44.6914    2089(45)          1992.8427         1760.6893                                                                  
   877    44.7414    2326(48)          2162.0178         1759.8419                                                                  
   878    44.7914    2817(53)          2543.1194         1758.9946                                                                  
   879    44.8414    3721(61)          3331.5232         1758.1472                                                                  
   880    44.8914    5422(73)          4793.1548         1757.2997                                                                  
   881    44.9414    8115(90)          7185.9355         1756.4523                                                                  
   882    44.9914    12153(110)         10601.8574         1755.6049                                                                
   883    45.0414    17411(131)         14781.3096         1754.7574                                                                
   884    45.0914    23312(152)         19023.1426         1753.9100                                                                
   885    45.1414    28431(168)         22307.9082         1753.0625                                                                
   886    45.1914    31464(177)         23657.2266         1752.2152                                                                
   887    45.2414    31754(178)         22621.7070         1751.3678                                                                
   888    45.2914    29223(170)         19558.6426         1750.5204                                                                
   889    45.3414    24654(157)         15410.4756         1749.6730                                                                
   890    45.3914    19305(138)         11225.6895         1748.8254                                                                
   891    45.4414    14521(120)          7787.5898         1747.9780                                                                
   892    45.4914    10627(103)          5488.2188         1747.1306                                                                
   893    45.5414    8425(91)          4451.9502         1746.2832                                                                  
   894    45.5914    7829(88)          4784.1260         1745.4358                                                                  
   895    45.6414    9086(95)          6770.3652         1744.5884                                                                  
   896    45.6914    12966(113)         10866.0293         1743.7410                                                                
   897    45.7414    19862(140)         17400.1758         1742.8936                                                                
   898    45.7914    29835(172)         26077.1367         1742.0461                                                                
   899    45.8414    41765(204)         35575.4688         1741.1987                                                                
   900    45.8914    53575(231)         43623.1016         1740.3512                                                                
   901    45.9414    63185(251)         47730.1445         1739.5038                                                                
   902    45.9914    66504(257)         46419.1992         1738.6564                                                                
   903    46.0414    63487(251)         40174.0039         1737.8090                                                                
   904    46.0914    54339(233)         31106.6348         1736.9615                                                                
   905    46.1414    41831(204)         21729.1973         1736.1141                                                                
   906    46.1914    28708(169)         13904.5068         1735.2667                                                                
   907    46.2414    18157(134)          8404.1738         1734.4193                                                                
   908    46.2914    10904(104)          5078.0552         1733.5719                                                                
   909    46.3414    6266(79)          3322.2588         1732.7245                                                                  
   910    46.3914    3789(61)          2499.8301         1731.8770                                                                  
   911    46.4414    2629(51)          2148.3071         1731.0295                                                                  
   912    46.4914    2202(46)          2002.8508         1730.1821                                                                  
   913    46.5414    2051(45)          1937.8408         1729.3347                                                                  
   914    46.5914    1965(44)          1902.3756         1728.4874                                                                  
   915    46.6414    1871(43)          1878.2992         1727.6399                                                                  
   916    46.6914    1888(43)          1859.5981         1726.7925                                                                  
   917    46.7414    1816(42)          1844.2607         1725.9451                                                                  
   918    46.7914    1775(42)          1831.2372         1725.0977                                                                  
   919    46.8414    1823(42)          1820.0786         1724.2502                                                                  
   920    46.8914    1877(43)          1810.4182         1723.4028                                                                  
   921    46.9414    1869(43)          1801.9805         1722.5554                                                                  
   922    46.9914    1812(42)          1794.5494         1721.7080                                                                  
   923    47.0414    1792(42)          1787.9557         1720.8606                                                                  
   924    47.0914    1844(42)          1782.0637         1720.0132                                                                  
   925    47.1414    1810(42)          1776.7642         1719.1656                                                                  
   926    47.1914    1772(42)          1771.9696         1718.3182                                                                  
   927    47.2414    1748(41)          1767.6069         1717.4708                                                                  
   928    47.2914    1704(41)          1763.6165         1716.6234                                                                  
   929    47.3414    1789(42)          1759.9485         1715.7760                                                                  
   930    47.3914    1723(41)          1756.5613         1714.9286                                                                  
   931    47.4414    1767(42)          1753.4204         1714.0812                                                                  
   932    47.4914    1751(41)          1750.4958         1713.2338                                                                  
   933    47.5414    1795(42)          1747.7627         1712.3864                                                                  
   934    47.5914    1750(41)          1745.1993         1711.5389                                                                  
   935    47.6414    1720(41)          1742.7870         1710.6914                                                                  
   936    47.6914    1778(42)          1740.5104         1709.8440                                                                  
   937    47.7414    1794(42)          1738.3555         1708.9966                                                                  
   938    47.7914    1772(42)          1736.3103         1708.1492                                                                  
   939    47.8414    1794(42)          1734.3645         1707.3018                                                                  
   940    47.8914    1771(42)          1732.5088         1706.4543                                                                  
   941    47.9414    1739(41)          1730.7355         1705.6069                                                                  
   942    47.9914    1656(40)          1729.0375         1704.7595                                                                  
   943    48.0414    1723(41)          1727.4086         1703.9121                                                                  
   944    48.0914    1744(41)          1725.8434         1703.0647                                                                  
   945    48.1414    1737(41)          1724.3372         1702.2173                                                                  
   946    48.1914    1768(42)          1722.8859         1701.3699                                                                  
   947    48.2414    1732(41)          1721.4855         1700.5225                                                                  
   948    48.2914    1745(41)          1720.1331         1699.6750                                                                  
   949    48.3414    1751(41)          1718.8257         1698.8276                                                                  
   950    48.3914    1804(42)          1717.5605         1697.9801                                                                  
   951    48.4414    1739(41)          1716.3359         1697.1327                                                                  
   952    48.4914    1712(41)          1715.1499         1696.2853                                                                  
   953    48.5414    1649(40)          1714.0007         1695.4379                                                                  
   954    48.5914    1690(41)          1712.8871         1694.5905                                                                  
   955    48.6414    1731(41)          1711.8079         1693.7430                                                                  
   956    48.6914    1806(42)          1710.7623         1692.8956                                                                  
   957    48.7414    1729(41)          1709.7498         1692.0482                                                                  
   958    48.7914    1613(40)          1708.7698         1691.2008                                                                  
   959    48.8414    1721(41)          1707.8221         1690.3534                                                                  
   960    48.8914    1729(41)          1706.9067         1689.5059                                                                  
   961    48.9414    1701(41)          1706.0240         1688.6584                                                                  
   962    48.9914    1759(41)          1705.1744         1687.8110                                                                  
   963    49.0414    1825(42)          1704.3585         1686.9636                                                                  
   964    49.0914    1808(42)          1703.5774         1686.1162                                                                  
   965    49.1414    1774(42)          1702.8322         1685.2688                                                                  
   966    49.1914    1741(41)          1702.1245         1684.4214                                                                  
   967    49.2414    1715(41)          1702.3396         1684.4573                                                                  
   968    49.2914    1701(41)          1703.4116         1685.3086                                                                  
   969    49.3414    1760(41)          1704.1583         1686.1598                                                                  
   970    49.3914    1771(42)          1705.3260         1687.0112                                                                  
   971    49.4414    1717(41)          1706.5447         1687.8624                                                                  
   972    49.4914    1651(40)          1707.8188         1688.7137                                                                  
   973    49.5414    1606(40)          1709.1536         1689.5649                                                                  
   974    49.5914    1712(41)          1710.5551         1690.4163                                                                  
   975    49.6414    1744(41)          1712.0303         1691.2676                                                                  
   976    49.6914    1708(41)          1713.5872         1692.1188                                                                  
   977    49.7414    1712(41)          1715.2360         1692.9701                                                                  
   978    49.7914    1685(41)          1716.9879         1693.8213                                                                  
   979    49.8414    1723(41)          1718.8572         1694.6726                                                                  
   980    49.8914    1748(41)          1720.8602         1695.5239                                                                  
   981    49.9414    1801(42)          1723.0167         1696.3751                                                                  
   982    49.9914    1784(42)          1725.3512         1697.2264                                                                  
   983    50.0414    1731(41)          1727.8929         1698.0776                                                                  
   984    50.0914    1752(41)          1730.6787         1698.9290                                                                  
   985    50.1414    1761(41)          1733.7538         1699.7803                                                                  
   986    50.1914    1708(41)          1737.1753         1700.6316                                                                  
   987    50.2414    1695(41)          1741.0168         1701.4828                                                                  
   988    50.2914    1780(42)          1745.3793         1702.3341                                                                  
   989    50.3414    1715(41)          1750.4211         1703.1853                                                                  
   990    50.3914    1751(41)          1756.4657         1704.0366                                                                  
   991    50.4414    1815(42)          1764.3492         1704.8879                                                                  
   992    50.4914    1821(42)          1776.4552         1705.7391                                                                  
   993    50.5414    1812(42)          1799.3175         1706.5905                                                                  
   994    50.5914    1886(43)          1849.0797         1707.4417                                                                  
   995    50.6414    2009(44)          1960.4965         1708.2930                                                                  
   996    50.6914    2276(47)          2196.9749         1709.1443                                                                  
   997    50.7414    2748(52)          2653.1602         1709.9955                                                                  
   998    50.7914    3579(59)          3435.6377         1710.8468                                                                  
   999    50.8414    5075(71)          4611.4238         1711.6980                                                                  
  1000    50.8914    6911(83)          6134.8374         1712.5493                                                                  
  1001    50.9414    9330(96)          7792.5020         1713.4006                                                                  
  1002    50.9914    11615(107)          9220.0762         1714.2518                                                                
  1003    51.0414    13228(115)         10014.3301         1715.1031                                                                
  1004    51.0914    14082(118)          9923.8945         1715.9545                                                                
  1005    51.1414    13570(116)          9016.8857         1716.8058                                                                
  1006    51.1914    12332(111)          7665.6709         1717.6570                                                                
  1007    51.2414    10606(102)          6377.5679         1718.5083                                                                
  1008    51.2914    9041(95)          5625.6206         1719.3595                                                                  
  1009    51.3414    8406(91)          5734.5259         1720.2108                                                                  
  1010    51.3914    8979(94)          6819.3740         1721.0621                                                                  
  1011    51.4414    10785(103)          8761.7559         1721.9133                                                                
  1012    51.4914    13605(116)         11222.0049         1722.7646                                                                
  1013    51.5414    17033(130)         13698.7822         1723.6158                                                                
  1014    51.5914    20446(142)         15653.0928         1724.4672                                                                
  1015    51.6414    22578(150)         16685.5879         1725.3185                                                                
  1016    51.6914    23777(154)         16630.7109         1726.1697                                                                
  1017    51.7414    23481(153)         15504.3379         1727.0210                                                                
  1018    51.7914    21508(146)         13483.2539         1727.8722                                                                
  1019    51.8414    18745(136)         10934.2881         1728.7235                                                                
  1020    51.8914    14888(122)          8320.8145         1729.5748                                                                
  1021    51.9414    11236(106)          6035.8501         1730.4261                                                                
  1022    51.9914    8065(89)          4298.6377         1731.2773                                                                  
  1023    52.0414    5538(74)          3140.7603         1732.1287                                                                  
  1024    52.0914    3890(62)          2460.3262         1732.9799                                                                  
  1025    52.1414    2784(52)          2104.8955         1733.8312                                                                  
  1026    52.1914    2240(47)          1937.2389         1734.6825                                                                  
  1027    52.2414    1965(44)          1863.2875         1735.5337                                                                  
  1028    52.2914    1856(43)          1830.5586         1736.3850                                                                  
  1029    52.3414    1833(42)          1814.3611         1737.2362                                                                  
  1030    52.3914    1792(42)          1804.6460         1738.0875                                                                  
  1031    52.4414    1708(41)          1797.7500         1738.9388                                                                  
  1032    52.4914    1729(41)          1792.3862         1739.7900                                                                  
  1033    52.5414    1760(41)          1788.0569         1740.6414                                                                  
  1034    52.5914    1755(41)          1784.5140         1741.4926                                                                  
  1035    52.6414    1775(42)          1781.5992         1742.3439                                                                  
  1036    52.6914    1779(42)          1779.1970         1743.1952                                                                  
  1037    52.7414    1745(41)          1777.2175         1744.0464                                                                  
  1038    52.7914    1722(41)          1775.5905         1744.8977                                                                  
  1039    52.8414    1759(41)          1774.2594         1745.7490                                                                  
  1040    52.8914    1738(41)          1773.1788         1746.6003                                                                  
  1041    52.9414    1785(42)          1772.3120         1747.4515                                                                  
  1042    52.9914    1829(42)          1771.6289         1748.3029                                                                  
  1043    53.0414    1799(42)          1771.1040         1749.1541                                                                  
  1044    53.0914    1749(41)          1770.7169         1750.0054                                                                  
  1045    53.1414    1791(42)          1770.4500         1750.8567                                                                  
  1046    53.1914    1809(42)          1770.2886         1751.7079                                                                  
  1047    53.2414    1835(42)          1770.2202         1752.5592                                                                  
  1048    53.2914    1745(41)          1770.2343         1753.4104                                                                  
  1049    53.3414    1755(41)          1770.3218         1754.2617                                                                  
  1050    53.3914    1799(42)          1770.4747         1755.1130                                                                  
  1051    53.4414    1743(41)          1770.6865         1755.9642                                                                  
  1052    53.4914    1783(42)          1770.9515         1756.8156                                                                  
  1053    53.5414    1756(41)          1771.2643         1757.6667                                                                  
  1054    53.5914    1774(42)          1771.6207         1758.5181                                                                  
  1055    53.6414    1772(42)          1772.0167         1759.3694                                                                  
  1056    53.6914    1706(41)          1772.4492         1760.2207                                                                  
  1057    53.7414    1733(41)          1772.9149         1761.0719                                                                  
  1058    53.7914    1768(42)          1773.4116         1761.9232                                                                  
  1059    53.8414    1755(41)          1773.9366         1762.7744                                                                  
  1060    53.8914    1736(41)          1774.4883         1763.6257                                                                  
  1061    53.9414    1742(41)          1775.0648         1764.4771                                                                  
  1062    53.9914    1787(42)          1775.6646         1765.3282                                                                  
  1063    54.0414    1824(42)          1776.2864         1766.1796                                                                  
  1064    54.0914    1751(41)          1776.9288         1767.0308                                                                  
  1065    54.1414    1689(41)          1777.5914         1767.8821                                                                  
  1066    54.1914    1706(41)          1778.2731         1768.7334                                                                  
  1067    54.2414    1797(42)          1778.9730         1769.5846                                                                  
  1068    54.2914    1766(42)          1779.6909         1770.4359                                                                  
  1069    54.3414    1825(42)          1780.4263         1771.2871                                                                  
  1070    54.3914    1760(41)          1781.1790         1772.1384                                                                  
  1071    54.4414    1744(41)          1781.9487         1772.9897                                                                  
  1072    54.4914    1748(41)          1782.7357         1773.8411                                                                  
  1073    54.5414    1699(41)          1783.5398         1774.6923                                                                  
  1074    54.5914    1814(42)          1784.3616         1775.5436                                                                  
  1075    54.6414    1738(41)          1785.2012         1776.3949                                                                  
  1076    54.6914    1707(41)          1786.0593         1777.2461                                                                  
  1077    54.7414    1780(42)          1786.9370         1778.0974                                                                  
  1078    54.7914    1788(42)          1787.8348         1778.9486                                                                  
  1079    54.8414    1844(42)          1788.7543         1779.7999                                                                  
  1080    54.8914    1809(42)          1789.6968         1780.6512                                                                  
  1081    54.9414    1855(43)          1790.6639         1781.5024                                                                  
  1082    54.9914    1774(42)          1791.6581         1782.3538                                                                  
  1083    55.0414    1745(41)          1792.6814         1783.2050                                                                  
  1084    55.0914    1794(42)          1793.7374         1784.0563                                                                  
  1085    55.1414    1813(42)          1794.8293         1784.9076                                                                  
  1086    55.1914    1833(42)          1795.9614         1785.7588                                                                  
  1087    55.2414    1778(42)          1797.1392         1786.6101                                                                  
  1088    55.2914    1846(42)          1798.3684         1787.4614                                                                  
  1089    55.3414    1815(42)          1799.6569         1788.3126                                                                  
  1090    55.3914    1785(42)          1801.0137         1789.1639                                                                  
  1091    55.4414    1771(42)          1802.4500         1790.0153                                                                  
  1092    55.4914    1822(42)          1803.9795         1790.8665                                                                  
  1093    55.5414    1811(42)          1805.6198         1791.7178                                                                  
  1094    55.5914    1797(42)          1807.3922         1792.5690                                                                  
  1095    55.6414    1784(42)          1809.3251         1793.4203                                                                  
  1096    55.6914    1720(41)          1811.4551         1794.2716                                                                  
  1097    55.7414    1757(41)          1813.8368         1795.1228                                                                  
  1098    55.7914    1855(43)          1817.1555         1795.9741                                                                  
  1099    55.8414    1802(42)          1820.4841         1796.8253                                                                  
  1100    55.8914    1802(42)          1825.0455         1797.6766                                                                  
  1101    55.9414    1803(42)          1832.6377         1798.5280                                                                  
  1102    55.9914    1882(43)          1847.8594         1799.3792                                                                  
  1103    56.0414    1927(43)          1881.0613         1800.2305                                                                  
  1104    56.0914    1987(44)          1952.1799         1801.0818                                                                  
  1105    56.1414    2197(46)          2092.4070         1801.9331                                                                  
  1106    56.1914    2526(50)          2342.5854         1802.7843                                                                  
  1107    56.2414    2913(53)          2733.9858         1803.6356                                                                  
  1108    56.2914    3527(59)          3265.0083         1804.4868                                                                  
  1109    56.3414    4372(66)          3876.2180         1805.3381                                                                  
  1110    56.3914    5149(71)          4446.9092         1806.1895                                                                  
  1111    56.4414    5836(76)          4826.2075         1807.0406                                                                  
  1112    56.4914    6150(78)          4899.3389         1807.8920                                                                  
  1113    56.5414    6086(78)          4663.2500         1808.7432                                                                  
  1114    56.5914    5740(75)          4243.7803         1809.5945                                                                  
  1115    56.6414    5433(73)          3841.2959         1810.4458                                                                  
  1116    56.6914    5154(71)          3651.2644         1811.2970                                                                  
  1117    56.7414    5220(72)          3797.6541         1812.1483                                                                  
  1118    56.7914    5596(74)          4285.8467         1812.9995                                                                  
  1119    56.8414    6416(80)          4986.8477         1813.8508                                                                  
  1120    56.8914    7502(86)          5665.7529         1814.7021                                                                  
  1121    56.9414    8132(90)          6058.3330         1815.5535                                                                  
  1122    56.9914    8470(92)          5986.8345         1816.4047                                                                  
  1123    57.0414    8284(91)          5459.0869         1817.2559                                                                  
  1124    57.0914    7538(86)          4649.9189         1818.1072                                                                  
  1125    57.1414    6308(79)          3786.5015         1818.9585                                                                  
  1126    57.1914    4973(70)          3046.9209         1819.8098                                                                  
  1127    57.2414    3860(62)          2513.7021         1820.6610                                                                  
  1128    57.2914    2913(53)          2182.8489         1821.5123                                                                  
  1129    57.3414    2381(48)          2003.4862         1822.3635                                                                  
  1130    57.3914    2078(45)          1917.1532         1823.2148                                                                  
  1131    57.4414    1953(44)          1879.2996         1824.0662                                                                  
  1132    57.4914    1869(43)          1863.3944         1824.9174                                                                  
  1133    57.5414    1882(43)          1856.3895         1825.7687                                                                  
  1134    57.5914    1858(43)          1852.8018         1826.6199                                                                  
  1135    57.6414    1765(42)          1850.5991         1827.4712                                                                  
  1136    57.6914    1857(43)          1849.0790         1828.3225                                                                  
  1137    57.7414    1794(42)          1847.9863         1829.1738                                                                  
  1138    57.7914    1836(42)          1847.2065         1830.0250                                                                  
  1139    57.8414    1799(42)          1846.6726         1830.8762                                                                  
  1140    57.8914    1810(42)          1846.3369         1831.7277                                                                  
  1141    57.9414    1872(43)          1846.1633         1832.5789                                                                  
  1142    57.9914    1855(43)          1846.1241         1833.4302                                                                  
  1143    58.0414    1836(42)          1846.1968         1834.2814                                                                  
  1144    58.0914    1833(42)          1846.3636         1835.1327                                                                  
  1145    58.1414    1809(42)          1846.6105         1835.9840                                                                  
  1146    58.1914    1874(43)          1846.9254         1836.8352                                                                  
  1147    58.2414    1810(42)          1847.2991         1837.6865                                                                  
  1148    58.2914    1747(41)          1847.7234         1838.5377                                                                  
  1149    58.3414    1873(43)          1848.2106         1839.3890                                                                  
  1150    58.3914    1837(42)          1848.7177         1840.2404                                                                  
  1151    58.4414    1894(43)          1849.2585         1841.0916                                                                  
  1152    58.4914    1908(43)          1849.8293         1841.9429                                                                  
  1153    58.5414    1833(42)          1850.4265         1842.7942                                                                  
  1154    58.5914    1810(42)          1851.0472         1843.6454                                                                  
  1155    58.6414    1838(42)          1851.6892         1844.4967                                                                  
  1156    58.6914    1874(43)          1852.3499         1845.3479                                                                  
  1157    58.7414    1860(43)          1853.0277         1846.1992                                                                  
  1158    58.7914    1841(42)          1853.7209         1847.0505                                                                  
  1159    58.8414    1803(42)          1854.4280         1847.9017                                                                  
  1160    58.8914    1859(43)          1855.1478         1848.7531                                                                  
  1161    58.9414    1858(43)          1855.8793         1849.6044                                                                  
  1162    58.9914    1841(42)          1856.6212         1850.4556                                                                  
  1163    59.0414    1859(43)          1857.3732         1851.3069                                                                  
  1164    59.0914    1834(42)          1858.1338         1852.1581                                                                  
  1165    59.1414    1782(42)          1858.9030         1853.0094                                                                  
  1166    59.1914    1903(43)          1859.6798         1853.8607                                                                  
  1167    59.2414    1852(43)          1860.4636         1854.7119                                                                  
  1168    59.2914    1772(42)          1861.2544         1855.5632                                                                  
  1169    59.3414    1758(41)          1862.0511         1856.4144                                                                  
  1170    59.3914    1835(42)          1862.8540         1857.2659                                                                  
  1171    59.4414    1832(42)          1863.6621         1858.1171                                                                  
  1172    59.4914    1812(42)          1864.4753         1858.9683                                                                  
  1173    59.5414    1807(42)          1865.2937         1859.8196                                                                  
  1174    59.5914    1916(43)          1866.1167         1860.6709                                                                  
  1175    59.6414    1869(43)          1866.9441         1861.5222                                                                  
  1176    59.6914    1789(42)          1867.7755         1862.3734                                                                  
  1177    59.7414    1855(43)          1868.6111         1863.2247                                                                  
  1178    59.7914    1854(43)          1869.4504         1864.0759                                                                  
  1179    59.8414    1840(42)          1870.2936         1864.9272                                                                  
  1180    59.8914    1798(42)          1871.1403         1865.7786                                                                  
  1181    59.9414    1836(42)          1871.9902         1866.6298                                                                  
  1182    59.9914    1837(42)          1872.8438         1867.4811                                                                  
  1183    60.0414    1910(43)          1873.7004         1868.3323                                                                  
  1184    60.0914    1867(43)          1874.5603         1869.1836                                                                  
  1185    60.1414    1833(42)          1875.4232         1870.0349                                                                  
  1186    60.1914    1856(43)          1876.2892         1870.8861                                                                  
  1187    60.2414    1964(44)          1877.1581         1871.7374                                                                  
  1188    60.2914    1861(43)          1878.0299         1872.5886                                                                  
  1189    60.3414    1916(43)          1878.9047         1873.4399                                                                  
  1190    60.3914    1894(43)          1879.9928         1874.2913                                                                  
  1191    60.4414    1914(43)          1880.8752         1875.1426                                                                  
  1192    60.4914    1890(43)          1881.7604         1875.9938                                                                  
  1193    60.5414    1917(43)          1882.6484         1876.8451                                                                  
  1194    60.5914    1912(43)          1883.5393         1877.6963                                                                  
  1195    60.6414    1911(43)          1884.4330         1878.5476                                                                  
  1196    60.6914    1939(44)          1885.3296         1879.3989                                                                  
  1197    60.7414    1993(44)          1886.2289         1880.2501                                                                  
  1198    60.7914    1967(44)          1887.1847         1881.1014                                                                  
  1199    60.8414    1962(44)          1888.0902         1881.9526                                                                  
  1200    60.8914    1891(43)          1888.9988         1882.8040                                                                  
  1201    60.9414    1863(43)          1889.9104         1883.6553                                                                  
  1202    60.9914    1886(43)          1890.9508         1884.5065                                                                  
  1203    61.0414    1938(44)          1891.8696         1885.3578                                                                  
  1204    61.0914    1927(43)          1892.7914         1886.2090                                                                  
  1205    61.1414    1975(44)          1893.7166         1887.0603                                                                  
  1206    61.1914    1871(43)          1894.6449         1887.9116                                                                  
  1207    61.2414    1925(43)          1895.5765         1888.7629                                                                  
  1208    61.2914    1910(43)          1896.5115         1889.6141                                                                  
  1209    61.3414    1954(44)          1897.4500         1890.4655                                                                  
  1210    61.3914    1902(43)          1898.3920         1891.3168                                                                  
  1211    61.4414    2012(44)          1899.3376         1892.1680                                                                  
  1212    61.4914    1964(44)          1900.2871         1893.0193                                                                  
  1213    61.5414    1928(43)          1901.2404         1893.8705                                                                  
  1214    61.5914    1834(42)          1902.0726         1894.7218                                                                  
  1215    61.6414    1908(43)          1903.0353         1895.5731                                                                  
  1216    61.6914    1958(44)          1904.0021         1896.4243                                                                  
  1217    61.7414    1928(43)          1904.8263         1897.2756                                                                  
  1218    61.7914    1945(44)          1905.8033         1898.1268                                                                  
  1219    61.8414    1999(44)          1906.7852         1898.9781                                                                  
  1220    61.8914    1910(43)          1907.7717         1899.8295                                                                  
  1221    61.9414    1938(44)          1908.6239         1900.6807                                                                  
  1222    61.9914    1837(42)          1909.6221         1901.5320                                                                  
  1223    62.0414    1898(43)          1910.6256         1902.3833                                                                  
  1224    62.0914    1960(44)          1911.6346         1903.2345                                                                  
  1225    62.1414    1967(44)          1912.6497         1904.0858                                                                  
  1226    62.1914    1959(44)          1913.6708         1904.9371                                                                  
  1227    62.2414    1858(43)          1914.6981         1905.7883                                                                  
  1228    62.2914    1908(43)          1915.7321         1906.6396                                                                  
  1229    62.3414    1888(43)          1916.7728         1907.4908                                                                  
  1230    62.3914    1931(43)          1917.8210         1908.3422                                                                  
  1231    62.4414    1977(44)          1918.8767         1909.1935                                                                  
  1232    62.4914    1977(44)          1919.9402         1910.0447                                                                  
  1233    62.5414    1940(44)          1921.0120         1910.8960                                                                  
  1234    62.5914    1901(43)          1922.0924         1911.7472                                                                  
  1235    62.6414    1994(44)          1923.1820         1912.5985                                                                  
  1236    62.6914    1888(43)          1924.2812         1913.4498                                                                  
  1237    62.7414    1912(43)          1925.3904         1914.3010                                                                  
  1238    62.7914    1897(43)          1926.5101         1915.1523                                                                  
  1239    62.8414    1970(44)          1927.6410         1916.0037                                                                  
  1240    62.8914    1964(44)          1928.8195         1916.8550                                                                  
  1241    62.9414    1923(43)          1929.9746         1917.7062                                                                  
  1242    62.9914    1972(44)          1931.1428         1918.5575                                                                  
  1243    63.0414    1966(44)          1932.3247         1919.4087                                                                  
  1244    63.0914    1956(44)          1933.5212         1920.2600                                                                  
  1245    63.1414    2031(45)          1934.7332         1921.1113                                                                  
  1246    63.1914    2004(44)          1935.9612         1921.9625                                                                  
  1247    63.2414    1929(43)          1937.2067         1922.8138                                                                  
  1248    63.2914    1998(44)          1938.4702         1923.6650                                                                  
  1249    63.3414    2052(45)          1939.7534         1924.5164                                                                  
  1250    63.3914    1985(44)          1941.0573         1925.3677                                                                  
  1251    63.4414    1988(44)          1942.3829         1926.2189                                                                  
  1252    63.4914    1969(44)          1943.7321         1927.0702                                                                  
  1253    63.5414    1967(44)          1945.1061         1927.9214                                                                  
  1254    63.5914    1961(44)          1946.5068         1928.7727                                                                  
  1255    63.6414    1988(44)          1947.9362         1929.6240                                                                  
  1256    63.6914    2037(45)          1949.3960         1930.4753                                                                  
  1257    63.7414    1950(44)          1950.8882         1931.3265                                                                  
  1258    63.7914    1947(44)          1952.4155         1932.1777                                                                  
  1259    63.8414    1983(44)          1953.9806         1933.0291                                                                  
  1260    63.8914    2012(44)          1955.5862         1933.8804                                                                  
  1261    63.9414    2061(45)          1957.2352         1934.7317                                                                  
  1262    63.9914    2055(45)          1958.9313         1935.5829                                                                  
  1263    64.0414    2002(44)          1960.6783         1936.4342                                                                  
  1264    64.0914    1965(44)          1962.4801         1937.2854                                                                  
  1265    64.1414    1970(44)          1964.3418         1938.1367                                                                  
  1266    64.1914    2048(45)          1966.2679         1938.9879                                                                  
  1267    64.2414    2037(45)          1968.2648         1939.8392                                                                  
  1268    64.2914    2043(45)          1970.3384         1940.6907                                                                  
  1269    64.3414    2044(45)          1972.4954         1941.5417                                                                  
  1270    64.3914    2023(44)          1974.7445         1942.3931                                                                  
  1271    64.4414    2007(44)          1977.0940         1943.2444                                                                  
  1272    64.4914    1929(43)          1979.5543         1944.0957                                                                  
  1273    64.5414    2069(45)          1982.1364         1944.9470                                                                  
  1274    64.5914    2009(44)          1984.8525         1945.7981                                                                  
  1275    64.6414    2051(45)          1987.7181         1946.6494                                                                  
  1276    64.6914    1935(43)          1990.7489         1947.5007                                                                  
  1277    64.7414    2003(44)          1993.9641         1948.3521                                                                  
  1278    64.7914    2116(46)          1997.3854         1949.2034                                                                  
  1279    64.8414    2107(45)          2001.0366         1950.0546                                                                  
  1280    64.8914    2106(45)          2004.9479         1950.9059                                                                  
  1281    64.9414    1998(44)          2009.1512         1951.7571                                                                  
  1282    64.9914    2040(45)          2013.6871         1952.6084                                                                  
  1283    65.0414    2130(46)          2018.6006         1953.4597                                                                  
  1284    65.0914    2029(45)          2023.9769         1954.3109                                                                  
  1285    65.1414    2051(45)          2029.8176         1955.1622                                                                  
  1286    65.1914    2118(46)          2036.2520         1956.0134                                                                  
  1287    65.2414    2125(46)          2043.3281         1956.8647                                                                  
  1288    65.2914    2066(45)          2051.1787         1957.7161                                                                  
  1289    65.3414    2097(45)          2059.9375         1958.5673                                                                  
  1290    65.3914    2109(45)          2069.7729         1959.4186                                                                  
  1291    65.4414    2093(45)          2080.8884         1960.2698                                                                  
  1292    65.4914    2100(45)          2093.5442         1961.1211                                                                  
  1293    65.5414    2101(45)          2108.0649         1961.9724                                                                  
  1294    65.5914    2164(46)          2124.8689         1962.8236                                                                  
  1295    65.6414    2128(46)          2144.5293         1963.6749                                                                  
  1296    65.6914    2127(46)          2167.8926         1964.5261                                                                  
  1297    65.7414    2164(46)          2196.5491         1965.3774                                                                  
  1298    65.7914    2171(46)          2234.2393         1966.2288                                                                  
  1299    65.8414    2289(47)          2291.0586         1967.0800                                                                  
  1300    65.8914    2373(48)          2394.2090         1967.9313                                                                  
  1301    65.9414    2512(50)          2610.8865         1968.7825                                                                  
  1302    65.9914    2968(54)          3087.9268         1969.6338                                                                  
  1303    66.0414    4019(63)          4100.3101         1970.4851                                                                  
  1304    66.0914    6002(77)          6075.6523         1971.3364                                                                  
  1305    66.1414    9601(97)          9534.4932         1972.1877                                                                  
  1306    66.1914    15646(125)         14882.5439         1973.0388                                                                
  1307    66.2414    23864(154)         22083.5859         1973.8901                                                                
  1308    66.2914    34007(184)         30346.4219         1974.7415                                                                
  1309    66.3414    44523(211)         38075.7539         1975.5928                                                                
  1310    66.3914    53178(230)         43245.8164         1976.4441                                                                
  1311    66.4414    58344(241)         44201.5898         1977.2952                                                                
  1312    66.4914    58249(241)         40629.6445         1978.1466                                                                
  1313    66.5414    52727(229)         33797.9375         1978.9979                                                                
  1314    66.5914    44388(210)         25790.7168         1979.8491                                                                
  1315    66.6414    35049(187)         18595.4395         1980.7004                                                                
  1316    66.6914    26486(162)         13576.7109         1981.5516                                                                
  1317    66.7414    20708(143)         11327.3047         1982.4030                                                                
  1318    66.7914    17863(133)         11786.0059         1983.2543                                                                
  1319    66.8414    18559(136)         14389.5791         1984.1055                                                                
  1320    66.8914    21601(146)         18172.7012         1984.9568                                                                
  1321    66.9414    25678(160)         21872.1602         1985.8080                                                                
  1322    66.9914    28650(169)         24173.3496         1986.6593                                                                
  1323    67.0414    30593(174)         24152.3184         1987.5106                                                                
  1324    67.0914    30479(174)         21753.8418         1988.3618                                                                
  1325    67.1414    27732(166)         17771.6699         1989.2131                                                                
  1326    67.1914    23199(152)         13324.5010         1990.0643                                                                
  1327    67.2414    17832(133)          9348.3516         1990.9156                                                                
  1328    67.2914    13016(114)          6347.1416         1991.7670                                                                
  1329    67.3414    8898(94)          4387.2500         1992.6182                                                                  
  1330    67.3914    5987(77)          3261.6558         1993.4695                                                                  
  1331    67.4414    4125(64)          2683.7085         1994.3207                                                                  
  1332    67.4914    3104(55)          2410.9514         1995.1720                                                                  
  1333    67.5414    2594(50)          2286.4731         1996.0233                                                                  
  1334    67.5914    2326(48)          2226.4695         1996.8745                                                                  
  1335    67.6414    2243(47)          2192.7480         1997.7258                                                                  
  1336    67.6914    2154(46)          2170.0220         1998.5770                                                                  
  1337    67.7414    2168(46)          2152.6370         1999.4285                                                                  
  1338    67.7914    2183(46)          2138.4958         2000.2798                                                                  
  1339    67.8414    2169(46)          2126.6912         2001.1309                                                                  
  1340    67.8914    2292(47)          2116.7122         2001.9822                                                                  
  1341    67.9414    2194(46)          2108.2161         2002.8335                                                                  
  1342    67.9914    2255(47)          2100.9397         2003.6848                                                                  
  1343    68.0414    2249(47)          2094.6814         2004.5361                                                                  
  1344    68.0914    2212(47)          2089.2808         2005.3872                                                                  
  1345    68.1414    2217(47)          2084.6064         2006.2386                                                                  
  1346    68.1914    2131(46)          2080.5542         2007.0898                                                                  
  1347    68.2414    2201(46)          2077.0366         2007.9412                                                                  
  1348    68.2914    2122(46)          2073.9834         2008.7925                                                                  
  1349    68.3414    2166(46)          2071.3357         2009.6437                                                                  
  1350    68.3914    2079(45)          2069.0435         2010.4950                                                                  
  1351    68.4414    2120(46)          2067.0659         2011.3462                                                                  
  1352    68.4914    2251(47)          2065.3677         2012.1975                                                                  
  1353    68.5414    2125(46)          2063.9192         2013.0488                                                                  
  1354    68.5914    2123(46)          2062.6958         2013.9000                                                                  
  1355    68.6414    2159(46)          2061.6755         2014.7513                                                                  
  1356    68.6914    2107(45)          2060.8403         2015.6025                                                                  
  1357    68.7414    2078(45)          2060.1748         2016.4539                                                                  
  1358    68.7914    2076(45)          2059.6655         2017.3052                                                                  
  1359    68.8414    2096(45)          2059.3018         2018.1564                                                                  
  1360    68.8914    2135(46)          2059.0742         2019.0077                                                                  
  1361    68.9414    2183(46)          2058.9751         2019.8589                                                                  
  1362    68.9914    2151(46)          2058.9980         2020.7102                                                                  
  1363    69.0414    2132(46)          2059.1389         2021.5615                                                                  
  1364    69.0914    2045(45)          2059.3938         2022.4127                                                                  
  1365    69.1414    2093(45)          2059.7610         2023.2640                                                                  
  1366    69.1914    2124(46)          2060.2397         2024.1152                                                                  
  1367    69.2414    2132(46)          2060.8308         2024.9666                                                                  
  1368    69.2914    2020(44)          2061.5364         2025.8179                                                                  
  1369    69.3414    2028(45)          2062.3601         2026.6691                                                                  
  1370    69.3914    1994(44)          2063.6287         2027.5205                                                                  
  1371    69.4414    2005(44)          2064.7114         2028.3716                                                                  
  1372    69.4914    2052(45)          2065.9380         2029.2229                                                                  
  1373    69.5414    2076(45)          2067.3232         2030.0742                                                                  
  1374    69.5914    2122(46)          2068.8918         2030.9255                                                                  
  1375    69.6414    2101(45)          2070.6890         2031.7769                                                                  
  1376    69.6914    2073(45)          2072.8127         2032.6279                                                                  
  1377    69.7414    2083(45)          2075.4956         2033.4792                                                                  
  1378    69.7914    2092(45)          2079.2769         2034.3307                                                                  
  1379    69.8414    2131(46)          2085.3328         2035.1819                                                                  
  1380    69.8914    2157(46)          2095.9988         2036.0332                                                                  
  1381    69.9414    2150(46)          2115.3840         2036.8844                                                                  
  1382    69.9914    2107(45)          2149.7932         2037.7357                                                                  
  1383    70.0414    2272(47)          2207.3062         2038.5870                                                                  
  1384    70.0914    2344(48)          2295.8887         2039.4382                                                                  
  1385    70.1414    2358(48)          2419.8701         2040.2896                                                                  
  1386    70.1914    2518(50)          2575.4067         2041.1407                                                                  
  1387    70.2414    2842(53)          2747.3806         2041.9921                                                                  
  1388    70.2914    3018(54)          2909.5181         2042.8434                                                                  
  1389    70.3414    3121(55)          3029.6023         2043.6946                                                                  
  1390    70.3914    3199(56)          3079.5220         2044.5459                                                                  
  1391    70.4414    3253(57)          3047.8584         2045.3971                                                                  
  1392    70.4914    3256(57)          2947.0664         2046.2484                                                                  
  1393    70.5414    3096(55)          2808.5591         2047.0997                                                                  
  1394    70.5914    2873(53)          2673.3928         2047.9509                                                                  
  1395    70.6414    2715(52)          2588.3496         2048.8022                                                                  
  1396    70.6914    2772(52)          2610.3909         2049.6536                                                                  
  1397    70.7414    2961(54)          2815.8425         2050.5049                                                                  
  1398    70.7914    3365(58)          3303.8486         2051.3562                                                                  
  1399    70.8414    4358(66)          4177.4375         2052.2073                                                                  
  1400    70.8914    5933(77)          5492.7451         2053.0586                                                                  
  1401    70.9414    8075(89)          7186.1836         2053.9099                                                                  
  1402    70.9914    10488(102)          9024.6133         2054.7612                                                                
  1403    71.0414    13016(114)         10621.1992         2055.6125                                                                
  1404    71.0914    15073(122)         11549.2070         2056.4636                                                                
  1405    71.1414    16314(127)         11546.1270         2057.3149                                                                
  1406    71.1914    16305(127)         10704.5996         2058.1663                                                                
  1407    71.2414    15473(124)          9443.5674         2059.0176                                                                
  1408    71.2914    13873(117)          8285.7393         2059.8689                                                                
  1409    71.3414    12333(111)          7636.8271         2060.7200                                                                
  1410    71.3914    11129(105)          7648.3452         2061.5713                                                                
  1411    71.4414    10813(103)          8188.1377         2062.4226                                                                
  1412    71.4914    11114(105)          8914.4980         2063.2739                                                                
  1413    71.5414    11209(105)          9423.1055         2064.1252                                                                
  1414    71.5914    11448(106)          9427.4287         2064.9763                                                                
  1415    71.6414    11298(106)          8867.8018         2065.8276                                                                
  1416    71.6914    10721(103)          7868.1543         2066.6790                                                                
  1417    71.7414    9664(98)          6640.9956         2067.5303                                                                  
  1418    71.7914    8065(89)          5410.6592         2068.3816                                                                  
  1419    71.8414    6545(80)          4344.2979         2069.2327                                                                  
  1420    71.8914    5337(73)          3521.4287         2070.0840                                                                  
  1421    71.9414    4102(64)          2947.6201         2070.9353                                                                  
  1422    71.9914    3346(57)          2582.7583         2071.7866                                                                  
  1423    72.0414    2732(52)          2369.9287         2072.6379                                                                  
  1424    72.0914    2454(49)          2254.9097         2073.4893                                                                  
  1425    72.1414    2248(47)          2196.1423         2074.3403                                                                  
  1426    72.1914    2194(46)          2166.6467         2075.1917                                                                  
  1427    72.2414    2116(46)          2151.1484         2076.0430                                                                  
  1428    72.2914    2183(46)          2142.0332         2076.8943                                                                  
  1429    72.3414    2118(46)          2135.8816         2077.7456                                                                  
  1430    72.3914    2090(45)          2131.2656         2078.5969                                                                  
  1431    72.4414    2126(46)          2127.5981         2079.4480                                                                  
  1432    72.4914    2094(45)          2124.6104         2080.2993                                                                  
  1433    72.5414    2099(45)          2122.1550         2081.1506                                                                  
  1434    72.5914    2077(45)          2120.1343         2082.0020                                                                  
  1435    72.6414    2083(45)          2118.4741         2082.8533                                                                  
  1436    72.6914    2126(46)          2117.1174         2083.7043                                                                  
  1437    72.7414    2071(45)          2116.0183         2084.5557                                                                  
  1438    72.7914    2132(46)          2115.1399         2085.4070                                                                  
  1439    72.8414    2178(46)          2114.4519         2086.2583                                                                  
  1440    72.8914    2130(46)          2113.9287         2087.1096                                                                  
  1441    72.9414    2092(45)          2113.5498         2087.9607                                                                  
  1442    72.9914    2076(45)          2113.2983         2088.8120                                                                  
  1443    73.0414    1977(44)          2113.1599         2089.6633                                                                  
  1444    73.0914    2019(44)          2113.1223         2090.5146                                                                  
  1445    73.1414    2189(46)          2113.1753         2091.3660                                                                  
  1446    73.1914    2134(46)          2112.9441         2091.8508                                                                  
  1447    73.2414    2151(46)          2112.6851         2092.2327                                                                  
  1448    73.2914    2121(46)          2113.2273         2092.6145                                                                  
  1449    73.3414    2084(45)          2113.1082         2092.9961                                                                  
  1450    73.3914    2078(45)          2113.0496         2093.3777                                                                  
  1451    73.4414    2095(45)          2113.0488         2093.7595                                                                  
  1452    73.4914    2118(46)          2113.1028         2094.1411                                                                  
  1453    73.5414    2120(46)          2113.2107         2094.5229                                                                  
  1454    73.5914    2152(46)          2113.3713         2094.9045                                                                  
  1455    73.6414    2166(46)          2113.5852         2095.2864                                                                  
  1456    73.6914    2129(46)          2113.8525         2095.6680                                                                  
  1457    73.7414    2069(45)          2114.1758         2096.0498                                                                  
  1458    73.7914    2135(46)          2114.5574         2096.4314                                                                  
  1459    73.8414    2063(45)          2115.0015         2096.8132                                                                  
  1460    73.8914    2066(45)          2115.5132         2097.1948                                                                  
  1461    73.9414    2084(45)          2116.1003         2097.5767                                                                  
  1462    73.9914    2124(46)          2116.7717         2097.9583                                                                  
  1463    74.0414    2126(46)          2117.5405         2098.3401                                                                  
  1464    74.0914    2174(46)          2118.4236         2098.7217                                                                  
  1465    74.1414    2140(46)          2119.4482         2099.1035                                                                  
  1466    74.1914    2162(46)          2120.6628         2099.4851                                                                  
  1467    74.2414    2253(47)          2122.1755         2099.8669                                                                  
  1468    74.2914    2244(47)          2124.2449         2100.2485                                                                  
  1469    74.3414    2176(46)          2127.4976         2100.6304                                                                  
  1470    74.3914    2094(45)          2133.3633         2101.0120                                                                  
  1471    74.4414    2164(46)          2144.8196         2101.3938                                                                  
  1472    74.4914    2261(47)          2167.4309         2101.7754                                                                  
  1473    74.5414    2289(47)          2210.3130         2102.1572                                                                  
  1474    74.5914    2411(49)          2286.2178         2102.5388                                                                  
  1475    74.6414    2591(50)          2409.6382         2102.9207                                                                  
  1476    74.6914    2806(52)          2591.8457         2103.3022                                                                  
  1477    74.7414    3132(55)          2833.7666         2103.6841                                                                  
  1478    74.7914    3686(60)          3118.6953         2104.0657                                                                  
  1479    74.8414    4251(65)          3409.4492         2104.4475                                                                  
  1480    74.8914    4665(68)          3653.1196         2104.8291                                                                  
  1481    74.9414    4781(69)          3793.9805         2105.2109                                                                  
  1482    74.9914    4850(69)          3794.5635         2105.5925                                                                  
  1483    75.0414    4758(68)          3654.8857         2105.9744                                                                  
  1484    75.0914    4699(68)          3412.5757         2106.3560                                                                  
  1485    75.1414    4200(64)          3123.2534         2106.7378                                                                  
  1486    75.1914    3725(61)          2839.9939         2107.1194                                                                  
  1487    75.2414    3285(57)          2599.8333         2107.5012                                                                  
  1488    75.2914    2876(53)          2419.4912         2107.8828                                                                  
  1489    75.3414    2709(52)          2298.1274         2108.2646                                                                  
  1490    75.3914    2474(49)          2224.4536         2108.6462                                                                  
  1491    75.4414    2432(49)          2184.1829         2109.0278                                                                  
  1492    75.4914    2380(48)          2164.9336         2109.4097                                                                  
  1493    75.5414    2276(47)          2158.5847         2109.7915                                                                  
  1494    75.5914    2292(47)          2161.8857         2110.1731                                                                  
  1495    75.6414    2271(47)          2176.7402         2110.5549                                                                  
  1496    75.6914    2390(48)          2210.8303         2110.9365                                                                  
  1497    75.7414    2369(48)          2277.7173         2111.3184                                                                  
  1498    75.7914    2468(49)          2395.9126         2111.7000                                                                  
  1499    75.8414    2590(50)          2583.6831         2112.0815                                                                  
  1500    75.8914    2778(52)          2850.4180         2112.4634                                                                  
  1501    75.9414    3154(56)          3186.0659         2112.8450                                                                  
  1502    75.9914    3283(57)          3554.5156         2113.2268                                                                  
  1503    76.0414    3751(61)          3894.8179         2113.6086                                                                  
  1504    76.0914    4055(63)          4135.9023         2113.9902                                                                  
  1505    76.1414    4258(65)          4224.1611         2114.3721                                                                  
  1506    76.1914    4240(65)          4144.1826         2114.7537                                                                  
  1507    76.2414    4208(64)          3917.1248         2115.1353                                                                  
  1508    76.2914    4046(63)          3592.4402         2115.5171                                                                  
  1509    76.3414    3757(61)          3234.8213         2115.8987                                                                  
  1510    76.3914    3471(58)          2902.1401         2116.2805                                                                  
  1511    76.4414    3272(57)          2630.8345         2116.6621                                                                  
  1512    76.4914    2926(54)          2433.3057         2117.0439                                                                  
  1513    76.5414    2755(52)          2303.8120         2117.4258                                                                  
  1514    76.5914    2608(51)          2226.8613         2117.8074                                                                  
  1515    76.6414    2524(50)          2185.0454         2118.1890                                                                  
  1516    76.6914    2470(49)          2163.9717         2118.5708                                                                  
  1517    76.7414    2432(49)          2153.8376         2118.9524                                                                  
  1518    76.7914    2355(48)          2148.9612         2119.3342                                                                  
  1519    76.8414    2363(48)          2146.4575         2119.7158                                                                  
  1520    76.8914    2462(49)          2145.0217         2120.0977                                                                  
  1521    76.9414    2419(49)          2144.1133         2120.4792                                                                  
  1522    76.9914    2423(49)          2143.5144         2120.8611                                                                  
  1523    77.0414    2408(49)          2143.1321         2121.2427                                                                  
  1524    77.0914    2390(48)          2142.0525         2121.6245                                                                  
  1525    77.1414    2372(48)          2142.0779         2122.0061                                                                  
  1526    77.1914    2386(48)          2142.1333         2122.3879                                                                  
  1527    77.2414    2431(49)          2142.2920         2122.7695                                                                  
  1528    77.2914    2372(48)          2142.5435         2123.1514                                                                  
  1529    77.3414    2318(48)          2142.8779         2123.5330                                                                  
  1530    77.3914    2376(48)          2143.2893         2123.9148                                                                  
  1531    77.4414    2458(49)          2143.7725         2124.2964                                                                  
  1532    77.4914    2279(47)          2143.8552         2124.6782                                                                  
  1533    77.5414    2279(47)          2144.4785         2125.0598                                                                  
  1534    77.5914    2292(47)          2145.1680         2125.4417                                                                  
  1535    77.6414    2305(48)          2145.9238         2125.8232                                                                  
  1536    77.6914    2228(47)          2146.7478         2126.2051                                                                  
  1537    77.7414    2283(47)          2147.7380         2126.5867                                                                  
  1538    77.7914    2257(47)          2148.7075         2126.9685                                                                  
  1539    77.8414    2200(46)          2149.7554         2127.3501                                                                  
  1540    77.8914    2273(47)          2150.8879         2127.7319                                                                  
  1541    77.9414    2331(48)          2152.1123         2128.1135                                                                  
  1542    77.9914    2283(47)          2153.4380         2128.4954                                                                  
  1543    78.0414    2239(47)          2154.8748         2128.8770                                                                  
  1544    78.0914    2290(47)          2156.4363         2129.2588                                                                  
  1545    78.1414    2223(47)          2158.1375         2129.6404                                                                  
  1546    78.1914    2203(46)          2159.9971         2130.0222                                                                  
  1547    78.2414    2214(47)          2162.0378         2130.4038                                                                  
  1548    78.2914    2209(47)          2164.2871         2130.7856                                                                  
  1549    78.3414    2328(48)          2166.7769         2131.1672                                                                  
  1550    78.3914    2318(48)          2169.5488         2131.5491                                                                  
  1551    78.4414    2330(48)          2172.6523         2131.9307                                                                  
  1552    78.4914    2329(48)          2176.1516         2132.3125                                                                  
  1553    78.5414    2261(47)          2180.1277         2132.6941                                                                  
  1554    78.5914    2296(47)          2184.6958         2133.0759                                                                  
  1555    78.6414    2262(47)          2190.0435         2133.4575                                                                  
  1556    78.6914    2294(47)          2196.5356         2133.8391                                                                  
  1557    78.7414    2296(47)          2205.0083         2134.2209                                                                  
  1558    78.7914    2273(47)          2217.4546         2134.6028                                                                  
  1559    78.8414    2280(47)          2238.5154         2134.9844                                                                  
  1560    78.8914    2424(49)          2278.2476         2135.3662                                                                  
  1561    78.9414    2541(50)          2356.3369         2135.7478                                                                  
  1562    78.9914    2678(51)          2507.1345         2136.1296                                                                  
  1563    79.0414    2925(54)          2782.6399         2136.5112                                                                  
  1564    79.0914    3382(58)          3248.8135         2136.8928                                                                  
  1565    79.1414    4155(64)          3970.3577         2137.2747                                                                  
  1566    79.1914    5265(72)          4981.2031         2137.6562                                                                  
  1567    79.2414    6709(81)          6249.9302         2138.0381                                                                  
  1568    79.2914    8291(91)          7652.5879         2138.4199                                                                  
  1569    79.3414    9705(98)          8974.2822         2138.8015                                                                  
  1570    79.3914    11093(105)          9948.8594         2139.1831                                                                
  1571    79.4414    12059(109)         10336.7402         2139.5649                                                                
  1572    79.4914    11913(109)         10031.2061         2139.9465                                                                
  1573    79.5414    11378(106)          9118.6260         2140.3284                                                                
  1574    79.5914    10117(100)          7829.1421         2140.7100                                                                
  1575    79.6414    8636(92)          6430.6870         2141.0918                                                                  
  1576    79.6914    7199(84)          5147.0010         2141.4734                                                                  
  1577    79.7414    5837(76)          4112.6235         2141.8552                                                                  
  1578    79.7914    4709(68)          3369.2192         2142.2368                                                                  
  1579    79.8414    3907(62)          2888.9697         2142.6187                                                                  
  1580    79.8914    3411(58)          2610.1001         2143.0002                                                                  
  1581    79.9414    3259(57)          2469.1899         2143.3821                                                                  
  1582    79.9914    3087(55)          2420.5439         2143.7637                                                                  
  1583    80.0414    3042(55)          2447.1450         2144.1455                                                                  
  1584    80.0914    3056(55)          2567.5566         2144.5271                                                                  
  1585    80.1414    3296(57)          2842.3645         2144.9089                                                                  
  1586    80.1914    3807(61)          3375.0496         2145.2905                                                                  
  1587    80.2414    4703(68)          4295.9346         2145.6724                                                                  
  1588    80.2914    6156(78)          5714.9917         2146.0540                                                                  
  1589    80.3414    7950(89)          7646.2715         2146.4358                                                                  
  1590    80.3914    10616(103)          9932.6680         2146.8174                                                                
  1591    80.4414    13735(117)         12213.6768         2147.1992                                                                
  1592    80.4914    16418(128)         13982.8271         2147.5808                                                                
  1593    80.5414    17793(133)         14741.5664         2147.9626                                                                
  1594    80.5914    18584(136)         14242.3848         2148.3442                                                                
  1595    80.6414    17729(133)         12649.8125         2148.7261                                                                
  1596    80.6914    16439(128)         10430.1465         2149.1077                                                                
  1597    80.7414    14222(119)          8104.6357         2149.4895                                                                
  1598    80.7914    11800(108)          6072.9492         2149.8711                                                                
  1599    80.8414    9118(95)          4536.1484         2150.2529                                                                  
  1600    80.8914    6859(82)          3510.3379         2150.6345                                                                  
  1601    80.9414    5091(71)          2898.5803         2151.0164                                                                  
  1602    80.9914    3777(61)          2567.9246         2151.3979                                                                  
  1603    81.0414    3005(54)          2402.6450         2151.7798                                                                  
  1604    81.0914    2640(51)          2323.3462         2152.1614                                                                  
  1605    81.1414    2478(49)          2284.4116         2152.5432                                                                  
  1606    81.1914    2429(49)          2263.1985         2152.9248                                                                  
  1607    81.2414    2364(48)          2249.7808         2153.3066                                                                  
  1608    81.2914    2260(47)          2239.9697         2153.6882                                                                  
  1609    81.3414    2308(48)          2232.2517         2154.0701                                                                  
  1610    81.3914    2438(49)          2225.9509         2154.4517                                                                  
  1611    81.4414    2368(48)          2220.7268         2154.8335                                                                  
  1612    81.4914    2305(48)          2216.3608         2155.2151                                                                  
  1613    81.5414    2233(47)          2212.6990         2155.5969                                                                  
  1614    81.5914    2286(47)          2209.6221         2155.9785                                                                  
  1615    81.6414    2350(48)          2207.0364         2156.3604                                                                  
  1616    81.6914    2342(48)          2204.9304         2156.7419                                                                  
  1617    81.7414    2337(48)          2203.1196         2157.1238                                                                  
  1618    81.7914    2342(48)          2201.6174         2157.5054                                                                  
  1619    81.8414    2312(48)          2200.3857         2157.8872                                                                  
  1620    81.8914    2309(48)          2199.1831         2158.2688                                                                  
  1621    81.9414    2328(48)          2198.4023         2158.6504                                                                  
  1622    81.9914    2273(47)          2197.8118         2159.0322                                                                  
  1623    82.0414    2239(47)          2197.3940         2159.4141                                                                  
  1624    82.0914    2311(48)          2197.1345         2159.7957                                                                  
  1625    82.1414    2303(47)          2196.8972         2160.1775                                                                  
  1626    82.1914    2329(48)          2196.9236         2160.5591                                                                  
  1627    82.2414    2306(48)          2197.0811         2160.9409                                                                  
  1628    82.2914    2264(47)          2197.3640         2161.3225                                                                  
  1629    82.3414    2263(47)          2197.7688         2161.7041                                                                  
  1630    82.3914    2308(48)          2198.2942         2162.0859                                                                  
  1631    82.4414    2231(47)          2198.9197         2162.4675                                                                  
  1632    82.4914    2287(47)          2199.6851         2162.8494                                                                  
  1633    82.5414    2305(48)          2200.5732         2163.2312                                                                  
  1634    82.5914    2384(48)          2201.5339         2163.6128                                                                  
  1635    82.6414    2308(48)          2202.6807         2163.9946                                                                  
  1636    82.6914    2264(47)          2203.9653         2164.3762                                                                  
  1637    82.7414    2289(47)          2205.3970         2164.7578                                                                  
  1638    82.7914    2280(47)          2206.9866         2165.1396                                                                  
  1639    82.8414    2321(48)          2208.7458         2165.5212                                                                  
  1640    82.8914    2303(47)          2210.6909         2165.9031                                                                  
  1641    82.9414    2251(47)          2212.8391         2166.2847                                                                  
  1642    82.9914    2384(48)          2215.2126         2166.6665                                                                  
  1643    83.0414    2347(48)          2217.8362         2167.0481                                                                  
  1644    83.0914    2224(47)          2221.1697         2167.8594                                                                  
  1645    83.1414    2275(47)          2224.9270         2168.7781                                                                  
  1646    83.1914    2321(48)          2229.0427         2169.6965                                                                  
  1647    83.2414    2306(48)          2233.5691         2170.6152                                                                  
  1648    83.2914    2300(47)          2238.5667         2171.5339                                                                  
  1649    83.3414    2284(47)          2244.1089         2172.4526                                                                  
  1650    83.3914    2324(48)          2250.2866         2173.3711                                                                  
  1651    83.4414    2333(48)          2257.2090         2174.2898                                                                  
  1652    83.4914    2324(48)          2265.0129         2175.2085                                                                  
  1653    83.5414    2380(48)          2273.8652         2176.1270                                                                  
  1654    83.5914    2327(48)          2283.9763         2177.0457                                                                  
  1655    83.6414    2341(48)          2295.6165         2177.9644                                                                  
  1656    83.6914    2232(47)          2309.1326         2178.8828                                                                  
  1657    83.7414    2351(48)          2325.0161         2179.8015                                                                  
  1658    83.7914    2439(49)          2344.0393         2180.7202                                                                  
  1659    83.8414    2408(49)          2367.7070         2181.6387                                                                  
  1660    83.8914    2355(48)          2399.5449         2182.5574                                                                  
  1661    83.9414    2479(49)          2448.3538         2183.4758                                                                  
  1662    83.9914    2607(51)          2535.6335         2184.3945                                                                  
  1663    84.0414    2735(52)          2709.5132         2185.3132                                                                  
  1664    84.0914    3170(56)          3065.8550         2186.2317                                                                  
  1665    84.1414    3823(61)          3770.6577         2187.1504                                                                  
  1666    84.1914    5035(70)          5064.7832         2188.0691                                                                  
  1667    84.2414    7223(84)          7225.3296         2188.9878                                                                  
  1668    84.2914    10535(102)         10458.1113         2189.9062                                                                
  1669    84.3414    15472(124)         14737.9160         2190.8250                                                                
  1670    84.3914    21035(145)         19664.5137         2191.7437                                                                
  1671    84.4414    26664(163)         24421.8652         2192.6621                                                                
  1672    84.4914    31702(178)         27925.7012         2193.5808                                                                
  1673    84.5414    34616(186)         29172.1309         2194.4995                                                                
  1674    84.5914    35446(188)         27754.2617         2195.4180                                                                
  1675    84.6414    33975(184)         24133.3086         2196.3367                                                                
  1676    84.6914    30516(174)         19334.1367         2197.2551                                                                
  1677    84.7414    26000(161)         14431.4092         2198.1738                                                                
  1678    84.7914    20838(144)         10215.2490         2199.0925                                                                
  1679    84.8414    15778(125)          7059.3447         2200.0110                                                                
  1680    84.8914    11355(106)          4966.6055         2200.9297                                                                
  1681    84.9414    7768(88)          3722.4023         2201.8484                                                                  
  1682    84.9914    5470(73)          3049.4907         2202.7668                                                                  
  1683    85.0414    4058(63)          2711.4226         2203.6855                                                                  
  1684    85.0914    3305(57)          2547.4866         2204.6042                                                                  
  1685    85.1414    2849(53)          2465.6614         2205.5229                                                                  
  1686    85.1914    2581(50)          2420.2302         2206.4414                                                                  
  1687    85.2414    2412(49)          2390.8955         2207.3601                                                                  
  1688    85.2914    2435(49)          2369.3777         2208.2788                                                                  
  1689    85.3414    2345(48)          2352.3660         2209.1973                                                                  
  1690    85.3914    2286(47)          2338.4224         2210.1160                                                                  
  1691    85.4414    2326(48)          2326.8044         2211.0344                                                                  
  1692    85.4914    2302(47)          2317.0339         2211.9531                                                                  
  1693    85.5414    2321(48)          2308.7688         2212.8718                                                                  
  1694    85.5914    2312(48)          2301.7456         2213.7903                                                                  
  1695    85.6414    2314(48)          2295.7551         2214.7090                                                                  
  1696    85.6914    2298(47)          2290.6326         2215.6274                                                                  
  1697    85.7414    2231(47)          2286.2432         2216.5461                                                                  
  1698    85.7914    2269(47)          2282.4790         2217.4648                                                                  
  1699    85.8414    2294(47)          2279.2512         2218.3835                                                                  
  1700    85.8914    2301(47)          2276.4851         2219.3020                                                                  
  1701    85.9414    2272(47)          2274.1216         2220.2207                                                                  
  1702    85.9914    2285(47)          2272.1086         2221.1394                                                                  
  1703    86.0414    2195(46)          2270.4041         2222.0581                                                                  
  1704    86.0914    2263(47)          2268.9724         2222.9766                                                                  
  1705    86.1414    2230(47)          2267.7830         2223.8953                                                                  
  1706    86.1914    2239(47)          2266.8105         2224.8137                                                                  
  1707    86.2414    2259(47)          2266.0330         2225.7324                                                                  
  1708    86.2914    2319(48)          2265.4324         2226.6511                                                                  
  1709    86.3414    2299(47)          2264.9929         2227.5696                                                                  
  1710    86.3914    2228(47)          2264.7017         2228.4883                                                                  
  1711    86.4414    2308(48)          2264.5469         2229.4067                                                                  
  1712    86.4914    2319(48)          2264.5203         2230.3254                                                                  
  1713    86.5414    2254(47)          2264.6138         2231.2441                                                                  
  1714    86.5914    2268(47)          2264.8213         2232.1626                                                                  
  1715    86.6414    2323(48)          2265.1387         2233.0813                                                                  
  1716    86.6914    2371(48)          2265.5627         2234.0000                                                                  
  1717    86.7414    2303(47)          2266.0913         2234.9187                                                                  
  1718    86.7914    2377(48)          2266.7239         2235.8372                                                                  
  1719    86.8414    2343(48)          2267.4619         2236.7559                                                                  
  1720    86.8914    2321(48)          2268.3071         2237.6746                                                                  
  1721    86.9414    2295(47)          2269.2637         2238.5930                                                                  
  1722    86.9914    2243(47)          2270.3379         2239.5117                                                                  
  1723    87.0414    2283(47)          2271.5015         2240.4304                                                                  
  1724    87.0914    2272(47)          2272.8047         2241.3489                                                                  
  1725    87.1414    2301(47)          2274.2903         2242.2676                                                                  
  1726    87.1914    2352(48)          2275.9426         2243.1860                                                                  
  1727    87.2414    2370(48)          2277.7612         2244.1047                                                                  
  1728    87.2914    2274(47)          2279.8210         2245.0234                                                                  
  1729    87.3414    2266(47)          2282.1379         2245.9419                                                                  
  1730    87.3914    2296(47)          2284.7717         2246.8606                                                                  
  1731    87.4414    2419(49)          2287.8269         2247.7793                                                                  
  1732    87.4914    2377(48)          2291.5220         2248.6978                                                                  
  1733    87.5414    2300(47)          2296.3501         2249.6165                                                                  
  1734    87.5914    2224(47)          2303.4312         2250.5352                                                                  
  1735    87.6414    2238(47)          2315.1965         2251.4539                                                                  
  1736    87.6914    2311(48)          2336.4917         2252.3723                                                                  
  1737    87.7414    2343(48)          2376.0759         2253.2910                                                                  
  1738    87.7914    2542(50)          2447.9553         2254.2097                                                                  
  1739    87.8414    2556(50)          2571.4973         2255.1282                                                                  
  1740    87.8914    2730(52)          2768.8740         2256.0469                                                                  
  1741    87.9414    3034(55)          3058.3188         2256.9653                                                                  
  1742    87.9914    3309(57)          3444.3271         2257.8840                                                                  
  1743    88.0414    3727(61)          3906.9395         2258.8027                                                                  
  1744    88.0914    4223(64)          4396.0850         2259.7212                                                                  
  1745    88.1414    4815(69)          4835.3984         2260.6399                                                                  
  1746    88.1914    5278(72)          5136.7529         2261.5586                                                                  
  1747    88.2414    5401(73)          5228.2554         2262.4771                                                                  
  1748    88.2914    5514(74)          5087.6133         2263.3958                                                                  
  1749    88.3414    5290(72)          4756.5713         2264.3145                                                                  
  1750    88.3914    5090(71)          4320.2788         2265.2329                                                                  
  1751    88.4414    4776(69)          3876.0322         2266.1516                                                                  
  1752    88.4914    4376(66)          3511.1855         2267.0703                                                                  
  1753    88.5414    3986(63)          3292.3511         2267.9890                                                                  
  1754    88.5914    3755(61)          3261.1860         2268.9075                                                                  
  1755    88.6414    3800(61)          3432.7139         2269.8262                                                                  
  1756    88.6914    4048(63)          3791.2842         2270.7446                                                                  
  1757    88.7414    4426(66)          4284.8975         2271.6633                                                                  
  1758    88.7914    4829(69)          4823.2148         2272.5820                                                                  
  1759    88.8414    5274(72)          5287.6045         2273.5005                                                                  
  1760    88.8914    5692(75)          5558.0654         2274.4192                                                                  
  1761    88.9414    5756(75)          5559.2646         2275.3376                                                                  
  1762    88.9914    5782(76)          5305.2104         2276.2563                                                                  
  1763    89.0414    5668(75)          4898.6123         2277.1750                                                                  
  1764    89.0914    5448(73)          4482.4180         2278.0938                                                                  
  1765    89.1414    5152(71)          4191.3047         2279.0122                                                                  
  1766    89.1914    5032(70)          4117.1875         2279.9309                                                                  
  1767    89.2414    4949(70)          4286.9199         2280.8496                                                                  
  1768    89.2914    5066(71)          4655.3628         2281.7681                                                                  
  1769    89.3414    5374(73)          5114.6387         2282.6868                                                                  
  1770    89.3914    5627(75)          5519.3389         2283.6055                                                                  
  1771    89.4414    5764(75)          5725.5190         2284.5239                                                                  
  1772    89.4914    5735(75)          5645.0708         2285.4426                                                                  
  1773    89.5414    5775(75)          5287.9673         2286.3613                                                                  
  1774    89.5914    5560(74)          4747.5859         2287.2798                                                                  
  1775    89.6414    5096(71)          4145.3745         2288.1985                                                                  
  1776    89.6914    4585(67)          3586.0078         2289.1169                                                                  
  1777    89.7414    4196(64)          3133.6157         2290.0356                                                                  
  1778    89.7914    3715(60)          2808.7488         2290.9543                                                                  
  1779    89.8414    3305(57)          2598.9744         2291.8728                                                                  
  1780    89.8914    2877(53)          2475.7329         2292.7915                                                                  
  1781    89.9414    2662(51)          2408.9387         2293.7102                                                                  
  1782    89.9914    2552(50)          2374.7332         2294.6289                                                                  
  1783    90.0414    2466(49)          2357.5247         2295.5474                                                                  
  1784    90.0914    2359(48)          2348.5073         2296.4661                                                                  
  1785    90.1414    2388(48)          2343.2812         2297.3848                                                                  
  1786    90.1914    2352(48)          2339.8604         2298.3032                                                                  
  1787    90.2414    2359(48)          2337.3999         2299.2219                                                                  
  1788    90.2914    2304(48)          2335.5430         2300.1406                                                                  
  1789    90.3414    2324(48)          2334.1235         2301.0591                                                                  
  1790    90.3914    2296(47)          2333.0486         2301.9778                                                                  
  1791    90.4414    2323(48)          2332.2573         2302.8962                                                                  
  1792    90.4914    2347(48)          2331.7043         2303.8149                                                                  
  1793    90.5414    2340(48)          2331.3545         2304.7336                                                                  
  1794    90.5914    2318(48)          2331.1794         2305.6521                                                                  
  1795    90.6414    2341(48)          2331.1570         2306.5708                                                                  
  1796    90.6914    2333(48)          2331.2695         2307.4895                                                                  
  1797    90.7414    2334(48)          2331.5020         2308.4080                                                                  
  1798    90.7914    2476(49)          2331.8433         2309.3267                                                                  
  1799    90.8414    2408(49)          2332.2839         2310.2454                                                                  
  1800    90.8914    2328(48)          2332.8169         2311.1641                                                                  
  1801    90.9414    2280(47)          2333.4365         2312.0825                                                                  
  1802    90.9914    2321(48)          2334.1394         2313.0012                                                                  
  1803    91.0414    2301(47)          2334.9226         2313.9199                                                                  
  1804    91.0914    2335(48)          2335.7849         2314.8384                                                                  
  1805    91.1414    2413(49)          2336.7268         2315.7571                                                                  
  1806    91.1914    2344(48)          2337.7495         2316.6755                                                                  
  1807    91.2414    2374(48)          2338.8560         2317.5942                                                                  
  1808    91.2914    2356(48)          2340.0505         2318.5129                                                                  
  1809    91.3414    2354(48)          2341.3386         2319.4314                                                                  
  1810    91.3914    2405(49)          2342.7290         2320.3501                                                                  
  1811    91.4414    2302(47)          2344.2307         2321.2686                                                                  
  1812    91.4914    2346(48)          2345.8577         2322.1873                                                                  
  1813    91.5414    2323(48)          2347.6255         2323.1060                                                                  
  1814    91.5914    2409(49)          2349.3677         2324.0247                                                                  
  1815    91.6414    2339(48)          2351.4856         2324.9431                                                                  
  1816    91.6914    2357(48)          2353.8264         2325.8618                                                                  
  1817    91.7414    2356(48)          2356.1250         2326.7805                                                                  
  1818    91.7914    2414(49)          2359.1113         2327.6992                                                                  
  1819    91.8414    2334(48)          2362.6472         2328.6177                                                                  
  1820    91.8914    2441(49)          2367.2144         2329.5364                                                                  
  1821    91.9414    2402(49)          2373.5620         2330.4548                                                                  
  1822    91.9914    2420(49)          2383.6946         2331.3735                                                                  
  1823    92.0414    2457(49)          2401.4326         2332.2922                                                                  
  1824    92.0914    2489(49)          2433.6560         2333.2107                                                                  
  1825    92.1414    2540(50)          2491.4614         2334.1294                                                                  
  1826    92.1914    2673(51)          2590.4165         2335.0479                                                                  
  1827    92.2414    2916(54)          2748.9460         2335.9666                                                                  
  1828    92.2914    3215(56)          2983.5208         2336.8853                                                                  
  1829    92.3414    3749(61)          3301.0356         2337.8037                                                                  
  1830    92.3914    4244(65)          3690.1729         2338.7224                                                                  
  1831    92.4414    4863(69)          4115.4570         2339.6411                                                                  
  1832    92.4914    5463(73)          4518.1631         2340.5598                                                                  
  1833    92.5414    5670(75)          4825.2588         2341.4783                                                                  
  1834    92.5914    5925(76)          4968.9121         2342.3970                                                                  
  1835    92.6414    6178(78)          4914.1846         2343.3157                                                                  
  1836    92.6914    6198(78)          4678.8213         2344.2341                                                                  
  1837    92.7414    5985(77)          4325.0098         2345.1528                                                                  
  1838    92.7914    5589(74)          3933.7637         2346.0715                                                                  
  1839    92.8414    5163(71)          3583.3042         2346.9900                                                                  
  1840    92.8914    4728(68)          3336.1704         2347.9087                                                                  
  1841    92.9414    4421(66)          3234.1118         2348.8271                                                                  
  1842    92.9914    4144(64)          3295.8657         2349.7458                                                                  
  1843    93.0414    4083(63)          3515.5200         2350.6646                                                                  
  1844    93.0914    4290(65)          3860.2212         2351.5830                                                                  
  1845    93.1414    4449(66)          4270.3818         2352.5017                                                                  
  1846    93.1914    4847(69)          4664.8740         2353.4204                                                                  
  1847    93.2414    5103(71)          4958.5205         2354.3389                                                                  
  1848    93.2914    5235(72)          5089.4658         2355.2576                                                                  
  1849    93.3414    5402(73)          5053.3320         2356.1763                                                                  
  1850    93.3914    5369(73)          4910.0957         2357.0950                                                                  
  1851    93.4414    5270(72)          4749.2490         2358.0134                                                                  
  1852    93.4914    5311(72)          4644.6968         2358.9321                                                                  
  1853    93.5414    5430(73)          4625.4053         2359.8508                                                                  
  1854    93.5914    5235(72)          4666.3867         2360.7693                                                                  
  1855    93.6414    5059(71)          4700.9937         2361.6880                                                                  
  1856    93.6914    4880(69)          4652.2930         2362.6064                                                                  
  1857    93.7414    4644(68)          4474.8364         2363.5251                                                                  
  1858    93.7914    4527(67)          4178.4526         2364.4438                                                                  
  1859    93.8414    4334(65)          3813.7339         2365.3623                                                                  
  1860    93.8914    4059(63)          3441.7634         2366.2810                                                                  
  1861    93.9414    3810(61)          3112.5417         2367.1997                                                                  
  1862    93.9914    3477(58)          2853.9231         2368.1182                                                                  
  1863    94.0414    3105(55)          2671.3918         2369.0369                                                                  
  1864    94.0914    2905(53)          2554.4751         2369.9556                                                                  
  1865    94.1414    2656(51)          2485.7412         2370.8740                                                                  
  1866    94.1914    2658(51)          2448.1030         2371.7927                                                                  
  1867    94.2414    2567(50)          2428.4038         2372.7114                                                                  
  1868    94.2914    2512(50)          2418.1465         2373.6301                                                                  
  1869    94.3414    2419(49)          2412.5337         2374.5486                                                                  
  1870    94.3914    2407(49)          2409.1470         2375.4673                                                                  
  1871    94.4414    2452(49)          2406.8740         2376.3857                                                                  
  1872    94.4914    2424(49)          2405.2266         2377.3044                                                                  
  1873    94.5414    2372(48)          2403.9890         2378.2231                                                                  
  1874    94.5914    2382(48)          2403.0549         2379.1416                                                                  
  1875    94.6414    2420(49)          2402.3621         2380.0603                                                                  
  1876    94.6914    2421(49)          2401.8682         2380.9788                                                                  
  1877    94.7414    2351(48)          2401.5408         2381.8975                                                                  
  1878    94.7914    2351(48)          2401.3545         2382.8162                                                                  
  1879    94.8414    2389(48)          2401.2888         2383.7349                                                                  
  1880    94.8914    2347(48)          2401.3262         2384.6533                                                                  
  1881    94.9414    2400(48)          2401.4536         2385.5720                                                                  
  1882    94.9914    2385(48)          2401.6589         2386.4907                                                                  
  1883    95.0414    2331(48)          2401.9319         2387.4092                                                                  
  1884    95.0914    2388(48)          2402.2654         2388.3279                                                                  
  1885    95.1414    2448(49)          2402.6519         2389.2466                                                                  
  1886    95.1914    2438(49)          2403.0850         2390.1650                                                                  
  1887    95.2414    2347(48)          2403.5603         2391.0837                                                                  
  1888    95.2914    2380(48)          2404.0730         2392.0024                                                                  
  1889    95.3414    2417(49)          2404.6191         2392.9209                                                                  
  1890    95.3914    2385(48)          2405.1960         2393.8396                                                                  
  1891    95.4414    2432(49)          2405.8003         2394.7581                                                                  
  1892    95.4914    2419(49)          2406.4297         2395.6768                                                                  
  1893    95.5414    2513(50)          2407.0818         2396.5955                                                                  
  1894    95.5914    2389(48)          2407.7883         2397.5139                                                                  
  1895    95.6414    2417(49)          2408.4807         2398.4326                                                                  
  1896    95.6914    2394(48)          2409.1904         2399.3513                                                                  
  1897    95.7414    2456(49)          2409.9165         2400.2700                                                                  
  1898    95.7914    2473(49)          2409.9255         2401.1885                                                                  
  1899    95.8414    2477(49)          2410.6870         2402.1072                                                                  
  1900    95.8914    2441(49)          2411.4612         2403.0259                                                                  
  1901    95.9414    2432(49)          2412.2471         2403.9443                                                                  
  1902    95.9914    2417(49)          2413.0447         2404.8630                                                                  
  1903    96.0414    2466(49)          2413.8528         2405.7817                                                                  
  1904    96.0914    2302(47)          2414.6704         2406.7002                                                                  
  1905    96.1414    2345(48)          2415.4978         2407.6189                                                                  
  1906    96.1914    2446(49)          2416.3337         2408.5374                                                                  
  1907    96.2414    2493(49)          2417.1785         2409.4561                                                                  
  1908    96.2914    2482(49)          2418.0310         2410.3748                                                                  
  1909    96.3414    2510(50)          2418.8911         2411.2932                                                                  
  1910    96.3914    2422(49)          2419.7590         2412.2119                                                                  
  1911    96.4414    2422(49)          2420.6338         2413.1306                                                                  
  1912    96.4914    2372(48)          2421.5151         2414.0491                                                                  
  1913    96.5414    2416(49)          2422.4033         2414.9678                                                                  
  1914    96.5914    2505(50)          2423.4446         2416.0330                                                                  
  1915    96.6414    2469(49)          2424.5203         2417.1265                                                                  
  1916    96.6914    2445(49)          2425.6018         2418.2195                                                                  
  1917    96.7414    2457(49)          2426.6897         2419.3130                                                                  
  1918    96.7914    2446(49)          2427.7832         2420.4062                                                                  
  1919    96.8414    2452(49)          2428.9377         2421.4993                                                                  
  1920    96.8914    2508(50)          2430.0435         2422.5928                                                                  
  1921    96.9414    2484(49)          2431.1545         2423.6858                                                                  
  1922    96.9914    2488(49)          2432.2717         2424.7791                                                                  
  1923    97.0414    2470(49)          2433.3950         2425.8726                                                                  
  1924    97.0914    2508(50)          2434.5234         2426.9656                                                                  
  1925    97.1414    2492(49)          2435.6584         2428.0591                                                                  
  1926    97.1914    2479(49)          2436.7988         2429.1521                                                                  
  1927    97.2414    2502(50)          2437.9453         2430.2454                                                                  
  1928    97.2914    2415(49)          2439.0984         2431.3389                                                                  
  1929    97.3414    2410(49)          2440.2571         2432.4319                                                                  
  1930    97.3914    2382(48)          2441.4314         2433.5251                                                                  
  1931    97.4414    2431(49)          2442.6035         2434.6184                                                                  
  1932    97.4914    2455(49)          2443.7825         2435.7117                                                                  
  1933    97.5414    2459(49)          2444.9688         2436.8052                                                                  
  1934    97.5914    2450(49)          2446.1619         2437.8982                                                                  
  1935    97.6414    2417(49)          2447.3630         2438.9915                                                                  
  1936    97.6914    2548(50)          2448.5720         2440.0847                                                                  
  1937    97.7414    2440(49)          2449.7893         2441.1780                                                                  
  1938    97.7914    2560(50)          2451.0156         2442.2712                                                                  
  1939    97.8414    2420(49)          2452.2510         2443.3645                                                                  
  1940    97.8914    2573(50)          2453.4961         2444.4578                                                                  
  1941    97.9414    2480(49)          2454.7515         2445.5510                                                                  
  1942    97.9914    2472(49)          2456.0176         2446.6443                                                                  
  1943    98.0414    2460(49)          2457.2957         2447.7375                                                                  
  1944    98.0914    2519(50)          2458.5859         2448.8308                                                                  
  1945    98.1414    2452(49)          2459.8894         2449.9241                                                                  
  1946    98.1914    2480(49)          2461.2070         2451.0173                                                                  
  1947    98.2414    2478(49)          2462.5398         2452.1106                                                                  
  1948    98.2914    2587(50)          2463.8892         2453.2039                                                                  
  1949    98.3414    2487(49)          2465.2561         2454.2971                                                                  
  1950    98.3914    2525(50)          2466.6423         2455.3904                                                                  
  1951    98.4414    2472(49)          2468.0491         2456.4836                                                                  
  1952    98.4914    2522(50)          2469.4788         2457.5769                                                                  
  1953    98.5414    2548(50)          2470.9329         2458.6702                                                                  
  1954    98.5914    2512(50)          2472.4141         2459.7634                                                                  
  1955    98.6414    2500(50)          2473.9250         2460.8567                                                                  
  1956    98.6914    2517(50)          2475.4688         2461.9500                                                                  
  1957    98.7414    2466(49)          2477.0483         2463.0432                                                                  
  1958    98.7914    2492(49)          2478.6682         2464.1365                                                                  
  1959    98.8414    2491(49)          2480.3325         2465.2297                                                                  
  1960    98.8914    2583(50)          2482.0466         2466.3230                                                                  
  1961    98.9414    2426(49)          2483.8159         2467.4160                                                                  
  1962    98.9914    2515(50)          2485.6484         2468.5095                                                                  
  1963    99.0414    2569(50)          2487.5518         2469.6028                                                                  
  1964    99.0914    2555(50)          2489.5349         2470.6958                                                                  
  1965    99.1414    2528(50)          2491.6101         2471.7893                                                                  
  1966    99.1914    2566(50)          2493.7900         2472.8823                                                                  
  1967    99.2414    2396(48)          2496.0928         2473.9758                                                                  
  1968    99.2914    2539(50)          2498.5391         2475.0691                                                                  
  1969    99.3414    2567(50)          2501.1597         2476.1621                                                                  
  1970    99.3914    2528(50)          2504.0037         2477.2556                                                                  
  1971    99.4414    2545(50)          2507.1531         2478.3486                                                                  
  1972    99.4914    2503(50)          2510.7656         2479.4419                                                                  
  1973    99.5414    2473(49)          2515.3940         2480.5354                                                                  
  1974    99.5914    2605(51)          2521.1072         2481.6284                                                                  
  1975    99.6414    2580(50)          2529.2219         2482.7219                                                                  
  1976    99.6914    2632(51)          2541.6167         2483.8149                                                                  
  1977    99.7414    2568(50)          2561.4363         2484.9082                                                                  
  1978    99.7914    2574(50)          2593.5933         2486.0017                                                                  
  1979    99.8414    2579(50)          2645.2124         2487.0947                                                                  
  1980    99.8914    2771(52)          2725.8169         2488.1880                                                                  
  1981    99.9414    2973(54)          2846.8049         2489.2812                                                                  
  1982    99.9914    3070(55)          3020.1746         2490.3745                                                                  
  1983   100.0414    3212(56)          3255.9558         2491.4680                                                                  
  1984   100.0914    3667(60)          3559.1733         2492.5610                                                                  
  1985   100.1414    4257(65)          3925.1792         2493.6543                                                                  
  1986   100.1914    4685(68)          4338.2319         2494.7476                                                                  
  1987   100.2414    5092(71)          4769.6489         2495.8408                                                                  
  1988   100.2914    5740(75)          5179.2324         2496.9341                                                                  
  1989   100.3414    6064(77)          5519.9570         2498.0273                                                                  
  1990   100.3914    6527(80)          5745.6870         2499.1206                                                                  
  1991   100.4414    6728(82)          5821.4990         2500.2139                                                                  
  1992   100.4914    6493(80)          5734.9829         2501.3071                                                                  
  1993   100.5414    6514(80)          5500.8384         2502.4004                                                                  
  1994   100.5914    6198(78)          5155.4575         2503.4937                                                                  
  1995   100.6414    5522(74)          4745.4316         2504.5869                                                                  
  1996   100.6914    5222(72)          4317.5137         2505.6802                                                                  
  1997   100.7414    4603(67)          3910.6982         2506.7734                                                                  
  1998   100.7914    4263(65)          3553.1021         2507.8667                                                                  
  1999   100.8414    3736(61)          3259.4390         2508.9600                                                                  
  2000   100.8914    3389(58)          3032.8508         2510.0532                                                                  
  2001   100.9414    3241(56)          2868.0410         2511.1465                                                                  
  2002   100.9914    3138(56)          2754.6350         2512.2397                                                                  
  2003   101.0414    2937(54)          2680.6760         2513.3330                                                                  
  2004   101.0914    2901(53)          2634.8845         2514.4263                                                                  
  2005   101.1414    2842(53)          2607.9531         2515.5195                                                                  
  2006   101.1914    2777(52)          2592.9768         2516.6128                                                                  
  2007   101.2414    2801(52)          2585.2429         2517.7061                                                                  
  2008   101.2914    2899(53)          2581.7603         2518.7993                                                                  
  2009   101.3414    2692(51)          2580.7627         2519.8926                                                                  
  2010   101.3914    2690(51)          2581.2732         2520.9858                                                                  
  2011   101.4414    2638(51)          2582.7871         2522.0789                                                                  
  2012   101.4914    2665(51)          2585.0693         2523.1724                                                                  
  2013   101.5414    2821(53)          2588.0286         2524.2656                                                                  
  2014   101.5914    2682(51)          2591.6555         2525.3589                                                                  
  2015   101.6414    2742(52)          2595.9939         2526.4521                                                                  
  2016   101.6914    2697(51)          2601.1318         2527.5452                                                                  
  2017   101.7414    2740(52)          2607.2261         2528.6387                                                                  
  2018   101.7914    2799(52)          2614.5564         2529.7319                                                                  
  2019   101.8414    2779(52)          2623.6821         2530.8250                                                                  
  2020   101.8914    2742(52)          2635.7886         2531.9185                                                                  
  2021   101.9414    2834(53)          2653.3767         2533.0115                                                                  
  2022   101.9914    2858(53)          2681.5681         2534.1047                                                                  
  2023   102.0414    2974(54)          2730.1731         2535.1982                                                                  
  2024   102.0914    3043(55)          2816.5444         2536.2913                                                                  
  2025   102.1414    3083(55)          2968.6904         2537.3848                                                                  
  2026   102.1914    3273(57)          3226.9141         2538.4778                                                                  
  2027   102.2414    3674(60)          3642.0981         2539.5710                                                                  
  2028   102.2914    4087(63)          4267.2178         2540.6646                                                                  
  2029   102.3414    4794(69)          5141.4902         2541.7576                                                                  
  2030   102.3914    5784(76)          6269.5244         2542.8508                                                                  
  2031   102.4414    7344(85)          7599.5508         2543.9441                                                                  
  2032   102.4914    8764(93)          9013.4062         2545.0374                                                                  
  2033   102.5414    10538(102)         10330.6074         2546.1309                                                                
  2034   102.5914    12087(109)         11335.1182         2547.2239                                                                
  2035   102.6414    13038(114)         11826.4844         2548.3171                                                                
  2036   102.6914    13482(116)         11692.3242         2549.4104                                                                
  2037   102.7414    13213(114)         10964.6465         2550.5037                                                                
  2038   102.7914    12740(112)          9802.6484         2551.5969                                                                
  2039   102.8414    12182(110)          8421.7373         2552.6902                                                                
  2040   102.8914    11061(105)          7026.8994         2553.7834                                                                
  2041   102.9414    10056(100)          5774.5205         2554.8767                                                                
  2042   102.9914    8652(93)          4753.8452         2555.9700                                                                  
  2043   103.0414    7322(85)          3990.6938         2557.0632                                                                  
  2044   103.0914    6243(79)          3463.1501         2558.1565                                                                  
  2045   103.1414    5033(70)          3123.5090         2559.2498                                                                  
  2046   103.1914    4078(63)          2918.3228         2560.3430                                                                  
  2047   103.2414    3559(59)          2800.5710         2561.4363                                                                  
  2048   103.2914    3170(56)          2735.2275         2562.5295                                                                  
  2049   103.3414    2996(54)          2699.1548         2563.6228                                                                  
  2050   103.3914    2767(52)          2678.5647         2564.7161                                                                  
  2051   103.4414    2631(51)          2665.9561         2565.8093                                                                  
  2052   103.4914    2656(51)          2657.5183         2566.9026                                                                  
  2053   103.5414    2725(52)          2651.4248         2567.9958                                                                  
  2054   103.5914    2608(51)          2646.8125         2569.0891                                                                  
  2055   103.6414    2613(51)          2643.2605         2570.1824                                                                  
  2056   103.6914    2673(51)          2640.5461         2571.2754                                                                  
  2057   103.7414    2720(52)          2638.5359         2572.3689                                                                  
  2058   103.7914    2630(51)          2637.1438         2573.4622                                                                  
  2059   103.8414    2559(50)          2636.3181         2574.5554                                                                  
  2060   103.8914    2562(50)          2636.1321         2575.6487                                                                  
  2061   103.9414    2695(51)          2636.4348         2576.7417                                                                  
  2062   103.9914    2741(52)          2637.4297         2577.8352                                                                  
  2063   104.0414    2681(51)          2639.3699         2578.9285                                                                  
  2064   104.0914    2673(51)          2643.2166         2580.0215                                                                  
  2065   104.1414    2661(51)          2648.9216         2581.1150                                                                  
  2066   104.1914    2692(51)          2658.4253         2582.2080                                                                  
  2067   104.2414    2675(51)          2674.0376         2583.3015                                                                  
  2068   104.2914    2737(52)          2699.1074         2584.3948                                                                  
  2069   104.3414    2823(53)          2738.1187         2585.4878                                                                  
  2070   104.3914    2832(53)          2796.5537         2586.5813                                                                  
  2071   104.4414    3019(54)          2880.2913         2587.6743                                                                  
  2072   104.4914    3156(56)          2994.6494         2588.7676                                                                  
  2073   104.5414    3332(57)          3142.8293         2589.8611                                                                  
  2074   104.5914    3571(59)          3324.7339         2590.9541                                                                  
  2075   104.6414    3934(62)          3533.6084         2592.0476                                                                  
  2076   104.6914    4368(66)          3757.9546         2593.1406                                                                  
  2077   104.7414    4641(68)          3980.0649         2594.2339                                                                  
  2078   104.7914    5096(71)          4177.8062         2595.3274                                                                  
  2079   104.8414    5148(71)          4327.6206         2596.4204                                                                  
  2080   104.8914    5152(71)          4408.9668         2597.5137                                                                  
  2081   104.9414    5377(73)          4409.6431         2598.6069                                                                  
  2082   104.9914    5387(73)          4330.0879         2599.7002                                                                  
  2083   105.0414    5281(72)          4183.2354         2600.7935                                                                  
  2084   105.0914    5101(71)          3990.2559         2601.8867                                                                  
  2085   105.1414    4776(69)          3775.1011         2602.9800                                                                  
  2086   105.1914    4398(66)          3560.6428         2604.0732                                                                  
  2087   105.2414    4334(65)          3365.9934         2605.1665                                                                  
  2088   105.2914    3877(62)          3205.8433         2606.2598                                                                  
  2089   105.3414    3694(60)          3090.7002         2607.3530                                                                  
  2090   105.3914    3578(59)          3028.9436         2608.4463                                                                  
  2091   105.4414    3424(58)          3027.7036         2609.5396                                                                  
  2092   105.4914    3371(58)          3094.1641         2610.6328                                                                  
  2093   105.5414    3523(59)          3234.4475         2611.7261                                                                  
  2094   105.5914    3609(60)          3450.5210         2612.8193                                                                  
  2095   105.6414    3760(61)          3735.9331         2613.9126                                                                  
  2096   105.6914    4027(63)          4071.3647         2615.0059                                                                  
  2097   105.7414    4337(65)          4423.3794         2616.0991                                                                  
  2098   105.7914    4679(68)          4745.6973         2617.1924                                                                  
  2099   105.8414    4980(70)          4986.3120         2618.2856                                                                  
  2100   105.8914    5257(72)          5100.0908         2619.3789                                                                  
  2101   105.9414    5245(72)          5066.0742         2620.4722                                                                  
  2102   105.9914    5079(71)          4899.9019         2621.5654                                                                  
  2103   106.0414    5131(71)          4649.5459         2622.6587                                                                  
  2104   106.0914    5057(71)          4380.4414         2623.7520                                                                  
  2105   106.1414    5054(71)          4162.0127         2624.8452                                                                  
  2106   106.1914    4986(70)          4058.7856         2625.9385                                                                  
  2107   106.2414    5048(71)          4122.6387         2627.0317                                                                  
  2108   106.2914    5252(72)          4385.3188         2628.1250                                                                  
  2109   106.3414    5462(73)          4850.3057         2629.2183                                                                  
  2110   106.3914    5951(77)          5486.3652         2630.3115                                                                  
  2111   106.4414    6494(80)          6224.7881         2631.4045                                                                  
  2112   106.4914    7125(84)          6965.7661         2632.4980                                                                  
  2113   106.5414    7588(87)          7593.3354         2633.5913                                                                  
  2114   106.5914    7907(88)          8004.2939         2634.6846                                                                  
  2115   106.6414    8148(90)          8149.8350         2635.7778                                                                  
  2116   106.6914    8487(92)          8066.1182         2636.8708                                                                  
  2117   106.7414    8624(92)          7858.9121         2637.9644                                                                  
  2118   106.7914    8693(93)          7652.8008         2639.0576                                                                  
  2119   106.8414    8964(94)          7544.7295         2640.1506                                                                  
  2120   106.8914    9322(96)          7576.6572         2641.2441                                                                  
  2121   106.9414    9832(99)          7726.8281         2642.3372                                                                  
  2122   106.9914    9989(99)          7919.6050         2643.4307                                                                  
  2123   107.0414    10316(101)          8053.2109         2644.5239                                                                
  2124   107.0914    10339(101)          8037.0820         2645.6169                                                                
  2125   107.1414    10192(100)          7819.0903         2646.7104                                                                
  2126   107.1914    9564(97)          7393.8818         2647.8035                                                                  
  2127   107.2414    9186(95)          6800.0625         2648.8967                                                                  
  2128   107.2914    8907(94)          6108.0850         2649.9902                                                                  
  2129   107.3414    8298(91)          5397.5269         2651.0833                                                                  
  2130   107.3914    7688(87)          4735.8979         2652.1765                                                                  
  2131   107.4414    7152(84)          4168.5640         2653.2698                                                                  
  2132   107.4914    6234(78)          3716.0591         2654.3630                                                                  
  2133   107.5414    5555(74)          3378.4492         2655.4565                                                                  
  2134   107.5914    4809(69)          3141.6592         2656.5496                                                                  
  2135   107.6414    4237(65)          2984.6614         2657.6428                                                                  
  2136   107.6914    3737(61)          2885.6499         2658.7361                                                                  
  2137   107.7414    3430(58)          2825.6121         2659.8293                                                                  
  2138   107.7914    3186(56)          2790.0735         2660.9226                                                                  
  2139   107.8414    2924(54)          2769.0601         2662.0159                                                                  
  2140   107.8914    2846(53)          2756.2793         2663.1091                                                                  
  2141   107.9414    2773(52)          2748.2058         2664.2024                                                                  
  2142   107.9914    2673(51)          2742.5601         2665.2957                                                                  
  2143   108.0414    2739(52)          2738.4370         2666.3889                                                                  
  2144   108.0914    2760(52)          2735.3088         2667.4822                                                                  
  2145   108.1414    2725(52)          2732.9028         2668.5754                                                                  
  2146   108.1914    2808(52)          2731.0740         2669.6687                                                                  
  2147   108.2414    2812(53)          2729.7354         2670.7620                                                                  
  2148   108.2914    2756(52)          2729.0120         2671.8552                                                                  
  2149   108.3414    2758(52)          2728.5161         2672.9485                                                                  
  2150   108.3914    2726(52)          2728.4138         2674.0417                                                                  
  2151   108.4414    2753(52)          2728.7236         2675.1350                                                                  
  2152   108.4914    2813(53)          2729.5100         2676.2283                                                                  
  2153   108.5414    2800(52)          2730.9197         2677.3215                                                                  
  2154   108.5914    2706(52)          2733.2405         2678.4148                                                                  
  2155   108.6414    2746(52)          2736.9983         2679.5081                                                                  
  2156   108.6914    2833(53)          2743.0930         2680.6011                                                                  
  2157   108.7414    2859(53)          2752.9829         2681.6946                                                                  
  2158   108.7914    2830(53)          2768.8811         2682.7878                                                                  
  2159   108.8414    2865(53)          2793.9307         2683.8811                                                                  
  2160   108.8914    2878(53)          2832.2896         2684.9744                                                                  
  2161   108.9414    2869(53)          2888.9512         2686.0674                                                                  
  2162   108.9914    3014(54)          2969.3218         2687.1609                                                                  
  2163   109.0414    3025(55)          3078.2969         2688.2542                                                                  
  2164   109.0914    3336(57)          3219.0361         2689.3472                                                                  
  2165   109.1414    3501(59)          3391.6138         2690.4407                                                                  
  2166   109.1914    3757(61)          3591.5337         2691.5337                                                                  
  2167   109.2414    3954(62)          3809.1074         2692.6272                                                                  
  2168   109.2914    4136(64)          4029.2427         2693.7205                                                                  
  2169   109.3414    4345(65)          4232.5430         2694.8135                                                                  
  2170   109.3914    4437(66)          4397.5029         2695.9070                                                                  
  2171   109.4414    4651(68)          4503.6343         2697.0000                                                                  
  2172   109.4914    4596(67)          4536.1841         2698.0933                                                                  
  2173   109.5414    4753(68)          4490.4629         2699.1868                                                                  
  2174   109.5914    4718(68)          4373.6196         2700.2798                                                                  
  2175   109.6414    4620(67)          4202.0928         2701.3730                                                                  
  2176   109.6914    4467(66)          3997.1245         2702.4663                                                                  
  2177   109.7414    4267(65)          3780.3140         2703.5596                                                                  
  2178   109.7914    4000(63)          3570.8984         2704.6531                                                                  
  2179   109.8414    3854(62)          3383.9653         2705.7461                                                                  
  2180   109.8914    3556(59)          3229.8069         2706.8394                                                                  
  2181   109.9414    3442(58)          3114.5225         2707.9326                                                                  
  2182   109.9914    3347(57)          3040.8914         2709.0259                                                                  
  2183   110.0414    3452(58)          3009.7056         2710.1191                                                                  
  2184   110.0914    3383(58)          3020.4775         2711.2124                                                                  
  2185   110.1414    3370(58)          3071.5078         2712.3057                                                                  
  2186   110.1914    3412(58)          3159.1099         2713.3989                                                                  
  2187   110.2414    3522(59)          3276.4805         2714.4922                                                                  
  2188   110.2914    3732(61)          3412.6052         2715.5854                                                                  
  2189   110.3414    3907(62)          3552.0562         2716.6787                                                                  
  2190   110.3914    3995(63)          3676.0327         2717.7720                                                                  
  2191   110.4414    3958(62)          3764.6567         2718.8652                                                                  
  2192   110.4914    4120(64)          3801.4333         2719.9585                                                                  
  2193   110.5414    4160(64)          3778.7256         2721.0518                                                                  
  2194   110.5914    4057(63)          3701.1182         2722.1450                                                                  
  2195   110.6414    4027(63)          3583.0796         2723.2383                                                                  
  2196   110.6914    3969(63)          3443.4458         2724.3315                                                                  
  2197   110.7414    3761(61)          3300.3657         2725.4248                                                                  
  2198   110.7914    3746(61)          3168.4243         2726.5181                                                                  
  2199   110.8414    3595(59)          3057.1504         2727.6113                                                                  
  2200   110.8914    3462(58)          2970.9902         2728.7046                                                                  
  2201   110.9414    3326(57)          2910.2539         2729.7979                                                                  
  2202   110.9914    3320(57)          2873.1824         2730.8911                                                                  
  2203   111.0414    3137(56)          2857.7075         2731.9844                                                                  
  2204   111.0914    3148(56)          2863.0986         2733.0776                                                                  
  2205   111.1414    3173(56)          2890.9900         2734.1709                                                                  
  2206   111.1914    3196(56)          2945.5684         2735.2642                                                                  
  2207   111.2414    3285(57)          3032.8765         2736.3574                                                                  
  2208   111.2914    3381(58)          3159.0579         2737.4507                                                                  
  2209   111.3414    3456(58)          3327.8296         2738.5439                                                                  
  2210   111.3914    3699(60)          3537.6990         2739.6372                                                                  
  2211   111.4414    3999(63)          3779.2913         2740.7302                                                                  
  2212   111.4914    4288(65)          4034.3796         2741.8237                                                                  
  2213   111.5414    4742(68)          4276.3105         2742.9170                                                                  
  2214   111.5914    5084(71)          4473.1660         2744.0103                                                                  
  2215   111.6414    5261(72)          4593.9824         2745.1035                                                                  
  2216   111.6914    5320(72)          4617.7969         2746.1965                                                                  
  2217   111.7414    5397(73)          4541.6582         2747.2900                                                                  
  2218   111.7914    5337(73)          4380.6367         2748.3833                                                                  
  2219   111.8414    5290(72)          4161.2207         2749.4763                                                                  
  2220   111.8914    5026(70)          3913.8098         2750.5698                                                                  
  2221   111.9414    4924(70)          3666.9919         2751.6628                                                                  
  2222   111.9914    4788(69)          3442.7659         2752.7563                                                                  
  2223   112.0414    4473(66)          3254.5667         2753.8496                                                                  
  2224   112.0914    4100(64)          3107.3203         2754.9426                                                                  
  2225   112.1414    3848(62)          2999.2754         2756.0361                                                                  
  2226   112.1914    3511(59)          2924.5718         2757.1292                                                                  
  2227   112.2414    3343(57)          2875.7092         2758.2224                                                                  
  2228   112.2914    3139(56)          2845.3433         2759.3159                                                                  
  2229   112.3414    2965(54)          2827.3118         2760.4089                                                                  
  2230   112.3914    2902(53)          2817.0044         2761.5024                                                                  
  2231   112.4414    2906(53)          2811.2910         2762.5955                                                                  
  2232   112.4914    2843(53)          2808.2024         2763.6887                                                                  
  2233   112.5414    2878(53)          2806.5874         2764.7822                                                                  
  2234   112.5914    2784(52)          2805.8093         2765.8752                                                                  
  2235   112.6414    2901(53)          2805.5327         2766.9685                                                                  
  2236   112.6914    2834(53)          2805.5850         2768.0618                                                                  
  2237   112.7414    2877(53)          2805.8760         2769.1550                                                                  
  2238   112.7914    2795(52)          2806.3567         2770.2485                                                                  
  2239   112.8414    2776(52)          2806.9968         2771.3416                                                                  
  2240   112.8914    2765(52)          2807.7776         2772.4348                                                                  
  2241   112.9414    2777(52)          2808.6853         2773.5281                                                                  
  2242   112.9914    2807(52)          2809.7092         2774.6213                                                                  
  2243   113.0414    2871(53)          2810.8423         2775.7146                                                                  
  2244   113.0914    2723(52)          2812.0786         2776.8079                                                                  
  2245   113.1414    2807(52)          2813.6782         2777.9011                                                                  
  2246   113.1914    2754(52)          2815.1133         2778.9944                                                                  
  2247   113.2414    2726(52)          2816.6455         2780.0876                                                                  
  2248   113.2914    2769(52)          2818.2756         2781.1809                                                                  
  2249   113.3414    2851(53)          2820.0469         2782.2742                                                                  
  2250   113.3914    2758(52)          2821.8806         2783.3674                                                                  
  2251   113.4414    2724(52)          2823.8223         2784.4607                                                                  
  2252   113.4914    2782(52)          2825.8784         2785.5540                                                                  
  2253   113.5414    2774(52)          2828.0566         2786.6472                                                                  
  2254   113.5914    2764(52)          2830.3662         2787.7405                                                                  
  2255   113.6414    2780(52)          2832.8191         2788.8337                                                                  
  2256   113.6914    2742(52)          2835.4280         2789.9268                                                                  
  2257   113.7414    2834(53)          2838.2102         2791.0203                                                                  
  2258   113.7914    2822(53)          2841.1843         2792.1135                                                                  
  2259   113.8414    2798(52)          2844.3728         2793.2068                                                                  
  2260   113.8914    2856(53)          2847.8037         2794.3000                                                                  
  2261   113.9414    2899(53)          2851.5081         2795.3931                                                                  
  2262   113.9914    2819(53)          2855.5264         2796.4866                                                                  
  2263   114.0414    2748(52)          2859.9053         2797.5798                                                                  
  2264   114.0914    2854(53)          2864.7031         2798.6729                                                                  
  2265   114.1414    2781(52)          2870.0010         2799.7664                                                                  
  2266   114.1914    2754(52)          2875.9092         2800.8594                                                                  
  2267   114.2414    2826(53)          2882.6099         2801.9529                                                                  
  2268   114.2914    2881(53)          2890.4155         2803.0461                                                                  
  2269   114.3414    2857(53)          2899.9104         2804.1392                                                                  
  2270   114.3914    2793(52)          2912.2109         2805.2327                                                                  
  2271   114.4414    2917(54)          2929.3982         2806.3257                                                                  
  2272   114.4914    2967(54)          2955.2449         2807.4189                                                                  
  2273   114.5414    2990(54)          2996.2031         2808.5125                                                                  
  2274   114.5914    3057(55)          3062.6345         2809.6055                                                                  
  2275   114.6414    3288(57)          3170.0554         2810.6990                                                                  
  2276   114.6914    3513(59)          3339.6865         2811.7920                                                                  
  2277   114.7414    3797(61)          3597.9182         2812.8853                                                                  
  2278   114.7914    4074(63)          3973.3130         2813.9788                                                                  
  2279   114.8414    4573(67)          4491.0859         2815.0718                                                                  
  2280   114.8914    5334(73)          5165.4824         2816.1650                                                                  
  2281   114.9414    6201(78)          5990.1816         2817.2583                                                                  
  2282   114.9914    7213(84)          6931.4673         2818.3516                                                                  
  2283   115.0414    8402(91)          7923.7998         2819.4448                                                                  
  2284   115.0914    9074(95)          8872.6094         2820.5381                                                                  
  2285   115.1414    9790(98)          9664.2891         2821.6313                                                                  
  2286   115.1914    10295(101)         10183.4150         2822.7246                                                                
  2287   115.2414    10297(101)         10342.2451         2823.8179                                                                
  2288   115.2914    10517(102)         10111.7451         2824.9111                                                                
  2289   115.3414    10121(100)          9534.7646         2826.0044                                                                
  2290   115.3914    9759(98)          8707.2197         2827.0977                                                                  
  2291   115.4414    9348(96)          7746.3027         2828.1909                                                                  
  2292   115.4914    8914(94)          6762.9492         2829.2842                                                                  
  2293   115.5414    8183(90)          5846.6094         2830.3774                                                                  
  2294   115.5914    7394(85)          5056.7856         2831.4707                                                                  
  2295   115.6414    6750(82)          4421.7041         2832.5640                                                                  
  2296   115.6914    5894(76)          3943.9128         2833.6572                                                                  
  2297   115.7414    5369(73)          3607.9683         2834.7505                                                                  
  2298   115.7914    4730(68)          3390.3850         2835.8438                                                                  
  2299   115.8414    4350(65)          3267.3667         2836.9370                                                                  
  2300   115.8914    4051(63)          3220.2688         2838.0303                                                                  
  2301   115.9414    4006(63)          3237.8623         2839.1235                                                                  
  2302   115.9914    3888(62)          3316.3054         2840.2168                                                                  
  2303   116.0414    3928(62)          3456.4238         2841.3101                                                                  
  2304   116.0914    4051(63)          3659.7239         2842.4033                                                                  
  2305   116.1414    4327(65)          3923.8340         2843.4966                                                                  
  2306   116.1914    4631(68)          4237.9619         2844.5898                                                                  
  2307   116.2414    4939(70)          4580.4531         2845.6831                                                                  
  2308   116.2914    5264(72)          4918.1909         2846.7764                                                                  
  2309   116.3414    5671(75)          5209.3975         2847.8696                                                                  
  2310   116.3914    5880(76)          5409.6133         2848.9629                                                                  
  2311   116.4414    6022(77)          5483.1890         2850.0562                                                                  
  2312   116.4914    5944(77)          5414.8809         2851.1494                                                                  
  2313   116.5414    5753(75)          5218.0596         2852.2427                                                                  
  2314   116.5914    5574(74)          4927.8452         2853.3359                                                                  
  2315   116.6414    5467(73)          4588.0918         2854.4292                                                                  
  2316   116.6914    5211(72)          4240.6846         2855.5222                                                                  
  2317   116.7414    5076(71)          3918.6707         2856.6157                                                                  
  2318   116.7914    4827(69)          3643.5674         2857.7090                                                                  
  2319   116.8414    4713(68)          3424.9087         2858.8020                                                                  
  2320   116.8914    4412(66)          3262.1726         2859.8955                                                                  
  2321   116.9414    4042(63)          3148.3125         2860.9885                                                                  
  2322   116.9914    3810(61)          3073.0659         2862.0820                                                                  
  2323   117.0414    3626(60)          3025.9199         2863.1753                                                                  
  2324   117.0914    3337(57)          2997.7874         2864.2683                                                                  
  2325   117.1414    3241(56)          2981.7324         2865.3618                                                                  
  2326   117.1914    3042(55)          2973.7466         2866.4548                                                                  
  2327   117.2414    3035(55)          2969.2568         2867.5481                                                                  
  2328   117.2914    2963(54)          2967.2419         2868.6416                                                                  
  2329   117.3414    2936(54)          2966.7119         2869.7346                                                                  
  2330   117.3914    2870(53)          2967.1494         2870.8281                                                                  
  2331   117.4414    2913(53)          2968.2942         2871.9211                                                                  
  2332   117.4914    2955(54)          2970.0222         2873.0144                                                                  
  2333   117.5414    2943(54)          2972.2773         2874.1079                                                                  
  2334   117.5914    2899(53)          2975.0378         2875.2009                                                                  
  2335   117.6414    2884(53)          2978.3062         2876.2942                                                                  
  2336   117.6914    2905(53)          2982.0999         2877.3875                                                                  
  2337   117.7414    2981(54)          2986.4556         2878.4807                                                                  
  2338   117.7914    2853(53)          2991.4333         2879.5742                                                                  
  2339   117.8414    2888(53)          2997.1313         2880.6672                                                                  
  2340   117.8914    2906(53)          3003.7188         2881.7605                                                                  
  2341   117.9414    2958(54)          3011.4805         2882.8538                                                                  
  2342   117.9914    2924(54)          3020.9180         2883.9470                                                                  
  2343   118.0414    2999(54)          3032.8958         2885.0403                                                                  
  2344   118.0914    2999(54)          3048.8813         2886.1335                                                                  
  2345   118.1414    3015(54)          3071.3120         2887.2268                                                                  
  2346   118.1914    3060(55)          3104.0610         2888.3201                                                                  
  2347   118.2414    3114(55)          3153.0786         2889.4133                                                                  
  2348   118.2914    3092(55)          3227.0393         2890.5066                                                                  
  2349   118.3414    3360(57)          3337.9575         2891.5999                                                                  
  2350   118.3914    3482(59)          3501.6028         2892.6931                                                                  
  2351   118.4414    3676(60)          3737.1543         2893.7864                                                                  
  2352   118.4914    4185(64)          4066.3386         2894.8796                                                                  
  2353   118.5414    4592(67)          4511.0078         2895.9729                                                                  
  2354   118.5914    5138(71)          5089.7627         2897.0662                                                                  
  2355   118.6414    6120(78)          5813.9028         2898.1594                                                                  
  2356   118.6914    7166(84)          6681.9355         2899.2524                                                                  
  2357   118.7414    8354(91)          7676.1113         2900.3459                                                                  
  2358   118.7914    9581(97)          8758.7168         2901.4392                                                                  
  2359   118.8414    10829(104)          9872.0010         2902.5325                                                                
  2360   118.8914    11922(109)         10941.2803         2903.6257                                                                
  2361   118.9414    12852(113)         11879.4814         2904.7188                                                                
  2362   118.9914    13461(116)         12597.6953         2905.8123                                                                
  2363   119.0414    13749(117)         13017.6504         2906.9055                                                                
  2364   119.0914    14283(119)         13089.0762         2907.9985                                                                
  2365   119.1414    14231(119)         12803.4463         2909.0920                                                                
  2366   119.1914    13727(117)         12196.6895         2910.1851                                                                
  2367   119.2414    13168(114)         11338.3232         2911.2786                                                                
  2368   119.2914    12457(111)         10315.3193         2912.3718                                                                
  2369   119.3414    11581(107)          9216.8838         2913.4648                                                                
  2370   119.3914    11001(104)          8123.0029         2914.5583                                                                
  2371   119.4414    9770(98)          7098.6357         2915.6514                                                                  
  2372   119.4914    8824(93)          6188.7124         2916.7446                                                                  
  2373   119.5414    7748(88)          5418.6011         2917.8381                                                                  
  2374   119.5914    6859(82)          4795.5605         2918.9312                                                                  
  2375   119.6414    6163(78)          4312.4487         2920.0247                                                                  
  2376   119.6914    5597(74)          3953.0981         2921.1177                                                                  
  2377   119.7414    5123(71)          3696.3694         2922.2109                                                                  
  2378   119.7914    4540(67)          3520.4062         2923.3044                                                                  
  2379   119.8414    4442(66)          3405.0962         2924.3975                                                                  
  2380   119.8914    4325(65)          3333.5920         2925.4907                                                                  
  2381   119.9414    3966(62)          3293.0073         2926.5840                                                                  
  2382   119.9914    3893(62)          3274.3154         2927.6772                                                                  
  2383   120.0414    3815(61)          3272.1052         2928.7705                                                                  
  2384   120.0914    3722(61)          3284.5386         2929.8638                                                                  
  2385   120.1414    3767(61)          3313.7671         2930.9570                                                                  
  2386   120.1914    3769(61)          3365.8613         2932.0503                                                                  
  2387   120.2414    3998(63)          3452.5339         2933.1436                                                                  
  2388   120.2914    4083(63)          3592.2454         2934.2368                                                                  
  2389   120.3414    4307(65)          3811.2476         2935.3301                                                                  
  2390   120.3914    4613(67)          4143.7451         2936.4233                                                                  
  2391   120.4414    4837(69)          4629.6636         2937.5166                                                                  
  2392   120.4914    5505(74)          5310.3062         2938.6099                                                                  
  2393   120.5414    6285(79)          6219.9614         2939.7031                                                                  
  2394   120.5914    7365(85)          7375.5234         2940.7964                                                                  
  2395   120.6414    8921(94)          8766.0576         2941.8896                                                                  
  2396   120.6914    10100(100)         10342.5576         2942.9829                                                                
  2397   120.7414    11846(108)         12015.8438         2944.0762                                                                
  2398   120.7914    13604(116)         13658.5840         2945.1694                                                                
  2399   120.8414    15201(123)         15118.1807         2946.2627                                                                
  2400   120.8914    16462(128)         16239.6699         2947.3560                                                                
  2401   120.9414    17467(132)         16899.4141         2948.4492                                                                
  2402   120.9914    18016(134)         17049.9238         2949.5425                                                                
  2403   121.0414    18074(134)         16747.9609         2950.6357                                                                
  2404   121.0914    18147(134)         16144.2773         2951.7290                                                                
  2405   121.1414    17999(134)         15438.8154         2952.8223                                                                
  2406   121.1914    18187(134)         14831.5352         2953.9155                                                                
  2407   121.2414    18603(136)         14482.2090         2955.0088                                                                
  2408   121.2914    19151(138)         14483.5859         2956.1021                                                                
  2409   121.3414    19635(140)         14845.9043         2957.1953                                                                
  2410   121.3914    20675(143)         15494.9336         2958.2886                                                                
  2411   121.4414    21103(145)         16283.7070         2959.3818                                                                
  2412   121.4914    21420(146)         17017.8633         2960.4751                                                                
  2413   121.5414    21442(146)         17489.8672         2961.5684                                                                
  2414   121.5914    20595(143)         17527.2832         2962.6616                                                                
  2415   121.6414    19733(140)         17040.8711         2963.7549                                                                
  2416   121.6914    18918(137)         16048.1650         2964.8479                                                                
  2417   121.7414    17547(132)         14654.8994         2965.9414                                                                
  2418   121.7914    16408(128)         13013.7695         2967.0347                                                                
  2419   121.8414    15681(125)         11284.9443         2968.1279                                                                
  2420   121.8914    14520(120)          9608.7383         2969.2212                                                                
  2421   121.9414    13807(117)          8092.0879         2970.3142                                                                
  2422   121.9914    12731(112)          6800.0117         2971.4077                                                                
  2423   122.0414    11574(107)          5758.4287         2972.5010                                                                
  2424   122.0914    10227(101)          4960.5527         2973.5940                                                                
  2425   122.1414    9108(95)          4377.2529         2974.6875                                                                  
  2426   122.1914    7626(87)          3968.7849         2975.7805                                                                  
  2427   122.2414    6420(80)          3693.1309         2976.8740                                                                  
  2428   122.2914    5450(73)          3512.5906         2977.9673                                                                  
  2429   122.3414    4610(67)          3396.5796         2979.0603                                                                  
  2430   122.3914    4145(64)          3322.3030         2980.1538                                                                  
  2431   122.4414    3798(61)          3274.0339         2981.2468                                                                  
  2432   122.4914    3606(60)          3241.5188         2982.3401                                                                  
  2433   122.5414    3393(58)          3218.4666         2983.4336                                                                  
  2434   122.5914    3289(57)          3201.1765         2984.5266                                                                  
  2435   122.6414    3213(56)          3187.5427         2985.6201                                                                  
  2436   122.6914    3105(55)          3176.3982         2986.7131                                                                  
  2437   122.7414    3064(55)          3167.0857         2987.8064                                                                  
  2438   122.7914    2976(54)          3159.2302         2988.8999                                                                  
  2439   122.8414    3061(55)          3152.6050         2989.9929                                                                  
  2440   122.8914    3005(54)          3147.0671         2991.0862                                                                  
  2441   122.9414    3068(55)          3142.5369         2992.1794                                                                  
  2442   122.9914    2992(54)          3138.9854         2993.2727                                                                  
  2443   123.0414    2957(54)          3136.4526         2994.3660                                                                  
  2444   123.0914    2906(53)          3135.0715         2995.4592                                                                  
  2445   123.1414    3079(55)          3135.1128         2996.5525                                                                  
  2446   123.1914    3157(56)          3137.0564         2997.6458                                                                  
  2447   123.2414    3133(55)          3141.6841         2998.7390                                                                  
  2448   123.2914    3092(55)          3150.1992         2999.8323                                                                  
  2449   123.3414    3148(56)          3164.3594         3000.9255                                                                  
  2450   123.3914    3115(55)          3186.6206         3002.0188                                                                  
  2451   123.4414    3182(56)          3220.2217         3003.1121                                                                  
  2452   123.4914    3269(57)          3269.2319         3004.2053                                                                  
  2453   123.5414    3301(57)          3338.4089         3005.2986                                                                  
  2454   123.5914    3419(58)          3432.8960         3006.3918                                                                  
  2455   123.6414    3637(60)          3557.7500         3007.4851                                                                  
  2456   123.6914    3887(62)          3717.0740         3008.5781                                                                  
  2457   123.7414    4141(64)          3913.2441         3009.6716                                                                  
  2458   123.7914    4452(66)          4145.7612         3010.7649                                                                  
  2459   123.8414    4831(69)          4410.4185         3011.8582                                                                  
  2460   123.8914    5260(72)          4698.8535         3012.9514                                                                  
  2461   123.9414    5652(75)          4998.1211         3014.0444                                                                  
  2462   123.9914    5966(77)          5291.4531         3015.1379                                                                  
  2463   124.0414    6335(79)          5558.9487         3016.2312                                                                  
  2464   124.0914    6667(81)          5779.3989         3017.3242                                                                  
  2465   124.1414    6863(82)          5932.8408         3018.4177                                                                  
  2466   124.1914    6999(83)          6003.6436         3019.5107                                                                  
  2467   124.2414    6983(83)          5984.1396         3020.6040                                                                  
  2468   124.2914    7010(83)          5876.5801         3021.6975                                                                  
  2469   124.3414    6912(83)          5692.5869         3022.7905                                                                  
  2470   124.3914    6818(82)          5450.1206         3023.8840                                                                  
  2471   124.4414    6499(80)          5170.1572         3024.9771                                                                  
  2472   124.4914    6403(80)          4873.4551         3026.0703                                                                  
  2473   124.5414    6026(77)          4578.7441         3027.1638                                                                  
  2474   124.5914    5646(75)          4301.2358         3028.2568                                                                  
  2475   124.6414    5447(73)          4051.7605         3029.3501                                                                  
  2476   124.6914    5019(70)          3836.8867         3030.4434                                                                  
  2477   124.7414    4709(68)          3658.9832         3031.5366                                                                  
  2478   124.7914    4391(66)          3517.2021         3032.6301                                                                  
  2479   124.8414    4118(64)          3408.3108         3033.7231                                                                  
  2480   124.8914    3904(62)          3327.6479         3034.8164                                                                  
  2481   124.9414    3816(61)          3270.0935         3035.9097                                                                  
  2482   124.9914    3671(60)          3230.6292         3037.0029                                                                  
  2483   125.0414    3606(60)          3204.8442         3038.0962                                                                  
  2484   125.0914    3590(59)          3189.1292         3039.1895                                                                  
  2485   125.1414    3460(58)          3180.7568         3040.2827                                                                  
  2486   125.1914    3497(59)          3177.8896         3041.3760                                                                  
  2487   125.2414    3378(58)          3179.5374         3042.4692                                                                  
  2488   125.2914    3281(57)          3185.5667         3043.5625                                                                  
  2489   125.3414    3355(57)          3196.7664         3044.6558                                                                  
  2490   125.3914    3354(57)          3215.0081         3045.7490                                                                  
  2491   125.4414    3464(58)          3243.4519         3046.8423                                                                  
  2492   125.4914    3531(59)          3286.7676         3047.9355                                                                  
  2493   125.5414    3572(59)          3351.3921         3049.0288                                                                  
  2494   125.5914    3617(60)          3445.2554         3050.1221                                                                  
  2495   125.6414    3728(61)          3577.5378         3051.2153                                                                  
  2496   125.6914    4033(63)          3757.6050         3052.3086                                                                  
  2497   125.7414    4223(64)          3993.7480         3053.4019                                                                  
  2498   125.7914    4534(67)          4291.2021         3054.4951                                                                  
  2499   125.8414    4980(70)          4650.2900         3055.5884                                                                  
  2500   125.8914    5396(73)          5065.0884         3056.6816                                                                  
  2501   125.9414    5990(77)          5522.2803         3057.7749                                                                  
  2502   125.9914    6609(81)          6002.0361         3058.8682                                                                  
  2503   126.0414    7182(84)          6479.1216         3059.9614                                                                  
  2504   126.0914    7829(88)          6925.9180         3061.0547                                                                  
  2505   126.1414    8123(90)          7316.9478         3062.1479                                                                  
  2506   126.1914    8392(91)          7634.5103         3063.2412                                                                  
  2507   126.2414    8760(93)          7875.4160         3064.3345                                                                  
  2508   126.2914    8979(94)          8052.6367         3065.4277                                                                  
  2509   126.3414    9123(95)          8190.2026         3066.5210                                                                  
  2510   126.3914    9577(97)          8313.0859         3067.6143                                                                  
  2511   126.4414    9929(99)          8437.7500         3068.7075                                                                  
  2512   126.4914    10339(101)          8566.6172         3069.8008                                                                
  2513   126.5414    10714(103)          8686.1074         3070.8940                                                                
  2514   126.5914    10801(103)          8768.3242         3071.9873                                                                
  2515   126.6414    10957(104)          8776.7363         3073.0806                                                                
  2516   126.6914    10728(103)          8675.7607         3074.1736                                                                
  2517   126.7414    10222(101)          8442.8359         3075.2671                                                                
  2518   126.7914    9800(98)          8077.3716         3076.3604                                                                  
  2519   126.8414    9429(97)          7600.6113         3077.4536                                                                  
  2520   126.8914    8954(94)          7047.7930         3078.5469                                                                  
  2521   126.9414    8319(91)          6459.6123         3079.6399                                                                  
  2522   126.9914    7944(89)          5874.6846         3080.7334                                                                  
  2523   127.0414    7398(86)          5325.6748         3081.8267                                                                  
  2524   127.0914    7006(83)          4836.3706         3082.9197                                                                  
  2525   127.1414    6889(83)          4420.4424         3084.0132                                                                  
  2526   127.1914    6504(80)          4082.4419         3085.1062                                                                  
  2527   127.2414    5841(76)          3819.0142         3086.1997                                                                  
  2528   127.2914    5493(74)          3621.6868         3087.2930                                                                  
  2529   127.3414    4951(70)          3479.1787         3088.3860                                                                  
  2530   127.3914    4432(66)          3379.5222         3089.4795                                                                  
  2531   127.4414    3965(62)          3311.7200         3090.5725                                                                  
  2532   127.4914    3701(60)          3266.4778         3091.6658                                                                  
  2533   127.5414    3586(59)          3236.5796         3092.7593                                                                  
  2534   127.5914    3430(58)          3216.7471         3093.8523                                                                  
  2535   127.6414    3270(57)          3203.3301         3094.9458                                                                  
  2536   127.6914    3304(57)          3193.9390         3096.0388                                                                  
  2537   127.7414    3138(56)          3187.0664         3097.1321                                                                  
  2538   127.7914    3121(55)          3181.8000         3098.2256                                                                  
  2539   127.8414    3150(56)          3177.5991         3099.3186                                                                  
  2540   127.8914    3048(55)          3174.1455         3100.4119                                                                  
  2541   127.9414    3181(56)          3171.2520         3101.5051                                                                  
  2542   127.9914    3136(56)          3168.8008         3102.5984                                                                  
  2543   128.0414    3121(55)          3166.7173         3103.6917                                                                  
  2544   128.0914    3098(55)          3164.9475         3104.7852                                                                  
  2545   128.1414    3188(56)          3163.4514         3105.8779                                                                  
  2546   128.1914    3001(54)          3162.1963         3106.9714                                                                  
  2547   128.2414    3058(55)          3161.1553         3108.0647                                                                  
  2548   128.2914    3064(55)          3160.3069         3109.1580                                                                  
  2549   128.3414    3062(55)          3159.6316         3110.2515                                                                  
  2550   128.3914    3051(55)          3159.1128         3111.3442                                                                  
  2551   128.4414    3054(55)          3158.2012         3111.9021                                                                  
  2552   128.4914    2979(54)          3157.2114         3112.2515                                                                  
  2553   128.5414    3053(55)          3156.3413         3112.6008                                                                  
  2554   128.5914    3004(54)          3155.5818         3112.9502                                                                  
  2555   128.6414    3114(55)          3154.9253         3113.2993                                                                  
  2556   128.6914    2985(54)          3154.3645         3113.6487                                                                  
  2557   128.7414    3065(55)          3153.8943         3113.9980                                                                  
  2558   128.7914    3065(55)          3153.5095         3114.3474                                                                  
  2559   128.8414    3078(55)          3153.2061         3114.6968                                                                  
  2560   128.8914    3036(55)          3152.9812         3115.0461                                                                  
  2561   128.9414    3024(54)          3152.8320         3115.3955                                                                  
  2562   128.9914    3021(54)          3152.7568         3115.7449                                                                  
  2563   129.0414    3126(55)          3152.7544         3116.0942                                                                  
  2564   129.0914    3116(55)          3152.8245         3116.4436                                                                  
  2565   129.1414    3101(55)          3152.9668         3116.7927                                                                  
  2566   129.1914    3014(54)          3153.1831         3117.1421                                                                  
  2567   129.2414    3093(55)          3153.4746         3117.4915                                                                  
  2568   129.2914    3103(55)          3153.8440         3117.8408                                                                  
  2569   129.3414    3075(55)          3154.2947         3118.1902                                                                  
  2570   129.3914    3059(55)          3154.8311         3118.5393                                                                  
  2571   129.4414    2998(54)          3155.4595         3118.8887                                                                  
  2572   129.4914    3016(54)          3156.1875         3119.2380                                                                  
  2573   129.5414    3091(55)          3157.0261         3119.5874                                                                  
  2574   129.5914    3120(55)          3157.9900         3119.9368                                                                  
  2575   129.6414    3096(55)          3159.1013         3120.2861                                                                  
  2576   129.6914    3102(55)          3160.3953         3120.6355                                                                  
  2577   129.7414    3173(56)          3161.9287         3120.9846                                                                  
  2578   129.7914    3189(56)          3163.7952         3121.3340                                                                  
  2579   129.8414    3060(55)          3166.1494         3121.6833                                                                  
  2580   129.8914    3057(55)          3169.2422         3122.0327                                                                  
  2581   129.9414    3101(55)          3173.4756         3122.3821                                                                  
  2582   129.9914    3153(56)          3179.4666         3122.7314                                                                  
  2583   130.0414    3215(56)          3188.1326         3123.0808                                                                  
  2584   130.0914    3240(56)          3200.7817         3123.4302                                                                  
  2585   130.1414    3178(56)          3219.1855         3123.7793                                                                  
  2586   130.1914    3239(56)          3245.6492         3124.1287                                                                  
  2587   130.2414    3251(57)          3282.9541         3124.4780                                                                  
  2588   130.2914    3287(57)          3334.2468         3124.8274                                                                  
  2589   130.3414    3407(58)          3402.7649         3125.1768                                                                  
  2590   130.3914    3427(58)          3491.3850         3125.5259                                                                  
  2591   130.4414    3480(58)          3602.1807         3125.8752                                                                  
  2592   130.4914    3772(61)          3735.6309         3126.2246                                                                  
  2593   130.5414    4110(64)          3890.1121         3126.5740                                                                  
  2594   130.5914    4198(64)          4061.4006         3126.9233                                                                  
  2595   130.6414    4356(66)          4242.4014         3127.2727                                                                  
  2596   130.6914    4506(67)          4423.4863         3127.6221                                                                  
  2597   130.7414    4580(67)          4592.6387         3127.9714                                                                  
  2598   130.7914    4858(69)          4736.5845         3128.3208                                                                  
  2599   130.8414    5005(70)          4842.2070         3128.6702                                                                  
  2600   130.8914    4915(70)          4898.4385         3129.0193                                                                  
  2601   130.9414    4846(69)          4899.8818         3129.3687                                                                  
  2602   130.9914    4781(69)          4847.0039         3129.7180                                                                  
  2603   131.0414    4848(69)          4747.2212         3130.0674                                                                  
  2604   131.0914    4765(69)          4612.7515         3130.4167                                                                  
  2605   131.1414    4702(68)          4458.1636         3130.7659                                                                  
  2606   131.1914    4804(69)          4298.0508         3131.1152                                                                  
  2607   131.2414    4779(69)          4145.8164         3131.4646                                                                  
  2608   131.2914    4581(67)          4012.4485         3131.8140                                                                  
  2609   131.3414    4514(67)          3905.8730         3132.1633                                                                  
  2610   131.3914    4416(66)          3830.5981         3132.5127                                                                  
  2611   131.4414    4374(66)          3787.5791         3132.8621                                                                  
  2612   131.4914    4327(66)          3774.5977         3133.2114                                                                  
  2613   131.5414    4213(65)          3786.6372         3133.5605                                                                  
  2614   131.5914    4076(64)          3816.5522         3133.9099                                                                  
  2615   131.6414    3956(63)          3855.6929         3134.2593                                                                  
  2616   131.6914    4055(64)          3895.1096         3134.6086                                                                  
  2617   131.7414    3826(62)          3925.8184         3134.9580                                                                  
  2618   131.7914    3750(62)          3940.3115         3135.3074                                                                  
  2619   131.8414    3759(62)          3933.6741         3135.6567                                                                  
  2620   131.8914    3837(63)          3904.4805         3136.0059                                                                  
  2621   131.9414    3692(62)          3854.7212         3136.3552                                                                  
  2622   131.9914    3623(61)          3788.8994         3136.7046                                                                  
  2623   132.0414    3729(62)          3712.7156         3137.0540                                                                  
  2624   132.0914    3686(62)          3632.0020         3137.4033                                                                  
  2625   132.1414    3637(62)          3552.0312         3137.7527                                                                  
  2626   132.1914    3469(60)          3476.9866         3138.1018                                                                  
  2627   132.2414    3466(60)          3409.8889         3138.4512                                                                  
  2628   132.2914    3544(61)          3352.4531         3138.8005                                                                  
  2629   132.3414    3496(61)          3305.2300         3139.1499                                                                  
  2630   132.3914    3374(60)          3267.8472         3139.4993                                                                  
  2631   132.4414    3280(59)          3239.2563         3139.8486                                                                  
  2632   132.4914    3343(60)          3218.0928         3140.1980                                                                  
  2633   132.5414    3389(61)          3202.8757         3140.5474                                                                  
  2634   132.5914    3275(60)          3192.2021         3140.8967                                                                  
  2635   132.6414    3138(58)          3184.8599         3141.2458                                                                  
  2636   132.6914    3139(59)          3179.8650         3141.5952                                                                  
  2637   132.7414    3132(59)          3176.4761         3141.9446                                                                  
  2638   132.7914    3131(59)          3174.1565         3142.2939                                                                  
  2639   132.8414    3239(60)          3172.5359         3142.6433                                                                  
  2640   132.8914    3193(60)          3171.3704         3142.9924                                                                  
  2641   132.9414    3195(60)          3170.5032         3143.3418                                                                  
  2642   132.9914    3201(60)          3169.8369         3143.6912                                                                  
  2643   133.0414    3121(59)          3169.3120         3144.0405                                                                  
  2644   133.0914    3204(60)          3168.8923         3144.3899                                                                  
  2645   133.1414    3180(60)          3168.5549         3144.7393                                                                  
  2646   133.1914    3114(59)          3168.2847         3145.0886                                                                  
  2647   133.2414    3176(60)          3168.0720         3145.4380                                                                  
  2648   133.2914    3215(61)          3167.9092         3145.7874                                                                  
  2649   133.3414    3172(60)          3167.7903         3146.1365                                                                  
  2650   133.3914    3164(60)          3167.7112         3146.4858                                                                  
  2651   133.4414    3175(61)          3167.6675         3146.8352                                                                  
  2652   133.4914    3127(60)          3167.6560         3147.1846                                                                  
  2653   133.5414    3061(60)          3167.6736         3147.5339                                                                  
  2654   133.5914    3008(59)          3167.7178         3147.8833                                                                  
  2655   133.6414    3118(61)          3167.7861         3148.2324                                                                  
  2656   133.6914    3188(61)          3167.8770         3148.5818                                                                  
  2657   133.7414    3217(62)          3167.9885         3148.9312                                                                  
  2658   133.7914    3257(62)          3168.1187         3149.2805                                                                  
  2659   133.8414    3193(62)          3168.2666         3149.6299                                                                  
  2660   133.8914    3186(62)          3168.4309         3149.9792                                                                  
  2661   133.9414    3203(62)          3168.6101         3150.3286                                                                  
  2662   133.9914    3212(62)          3168.8032         3150.6777                                                                  
  2663   134.0414    3147(62)          3169.0098         3151.0271                                                                  
  2664   134.0914    3156(62)          3169.2288         3151.3765                                                                  
  2665   134.1414    3157(62)          3169.4592         3151.7258                                                                  
  2666   134.1914    3187(63)          3169.7007         3152.0752                                                                  
  2667   134.2414    3166(62)          3169.9526         3152.4246                                                                  
  2668   134.2914    3118(62)          3170.2141         3152.7739                                                                  
  2669   134.3414    3115(62)          3170.4851         3153.1233                                                                  
  2670   134.3914    3196(63)          3170.7646         3153.4724                                                                  
  2671   134.4414    3215(63)          3171.0527         3153.8218                                                                  
  2672   134.4914    3098(62)          3171.3489         3154.1711                                                                  
  2673   134.5414    3071(62)          3171.6526         3154.5205                                                                  
  2674   134.5914    3139(63)          3171.9639         3154.8699                                                                  
  2675   134.6414    3192(64)          3172.2817         3155.2190                                                                  
  2676   134.6914    3173(64)          3172.6069         3155.5684                                                                  
  2677   134.7414    3112(63)          3172.9385         3155.9177                                                                  
  2678   134.7914    3106(63)          3173.2766         3156.2671                                                                  
  2679   134.8414    3114(63)          3173.6206         3156.6165                                                                  
  2680   134.8914    3093(63)          3173.9709         3156.9658                                                                  
  2681   134.9414    3154(64)          3174.3269         3157.3152                                                                  
  2682   134.9914    3217(65)          3174.6885         3157.6646                                                                  
  2683   135.0414    3200(65)          3175.0557         3158.0139                                                                  
  2684   135.0914    3215(65)          3175.4282         3158.3633                                                                  
  2685   135.1414    3206(65)          3175.8062         3158.7124                                                                  
  2686   135.1914    3090(64)          3176.1892         3159.0618                                                                  
  2687   135.2414    3233(66)          3176.5776         3159.4111                                                                  
  2688   135.2914    3128(65)          3176.9709         3159.7605                                                                  
  2689   135.3414    3155(65)          3177.3694         3160.1099                                                                  
  2690   135.3914    3123(65)          3177.7727         3160.4590                                                                  
  2691   135.4414    3138(65)          3178.1809         3160.8083                                                                  
  2692   135.4914    3147(65)          3178.5942         3161.1577                                                                  
  2693   135.5414    3115(65)          3179.0122         3161.5071                                                                  
  2694   135.5914    3135(66)          3179.4351         3161.8564                                                                  
  2695   135.6414    3129(66)          3179.8628         3162.2058                                                                  
  2696   135.6914    3199(66)          3180.2954         3162.5552                                                                  
  2697   135.7414    3130(66)          3180.7324         3162.9043                                                                  
  2698   135.7914    3219(67)          3181.1748         3163.2537                                                                  
  2699   135.8414    3191(67)          3181.6218         3163.6030                                                                  
  2700   135.8914    3209(67)          3182.0735         3163.9524                                                                  
  2701   135.9414    3223(67)          3182.5303         3164.3018                                                                  
  2702   135.9914    3207(67)          3182.9919         3164.6511                                                                  
  2703   136.0414    3204(67)          3183.4587         3165.0005                                                                  
  2704   136.0914    3267(68)          3183.9304         3165.3499                                                                  
  2705   136.1414    3135(67)          3184.4070         3165.6990                                                                  
  2706   136.1914    3192(68)          3184.8887         3166.0483                                                                  
  2707   136.2414    3167(68)          3185.3757         3166.3977                                                                  
  2708   136.2914    3101(67)          3185.8682         3166.7471                                                                  
  2709   136.3414    3169(68)          3186.3657         3167.0964                                                                  
  2710   136.3914    3138(68)          3186.8687         3167.4456                                                                  
  2711   136.4414    3184(68)          3187.3772         3167.7949                                                                  
  2712   136.4914    3118(68)          3187.8916         3168.1443                                                                  
  2713   136.5414    3057(67)          3188.4114         3168.4937                                                                  
  2714   136.5914    3176(69)          3188.9373         3168.8430                                                                  
  2715   136.6414    3275(70)          3189.4690         3169.1924                                                                  
  2716   136.6914    3217(69)          3190.0066         3169.5417                                                                  
  2717   136.7414    3164(69)          3190.5508         3169.8911                                                                  
  2718   136.7914    3199(69)          3191.1011         3170.2405                                                                  
  2719   136.8414    3181(69)          3191.6580         3170.5898                                                                  
  2720   136.8914    3153(69)          3192.2212         3170.9390                                                                  
  2721   136.9414    3285(71)          3192.7915         3171.2883                                                                  
  2722   136.9914    3263(71)          3193.3689         3171.6377                                                                  
  2723   137.0414    3165(70)          3193.9536         3171.9871                                                                  
  2724   137.0914    3220(70)          3194.5454         3172.3364                                                                  
  2725   137.1414    3186(70)          3195.1448         3172.6855                                                                  
  2726   137.1914    3251(71)          3195.7522         3173.0349                                                                  
  2727   137.2414    3266(71)          3196.3674         3173.3843                                                                  
  2728   137.2914    3211(71)          3196.9912         3173.7336                                                                  
  2729   137.3414    3326(72)          3197.6235         3174.0830                                                                  
  2730   137.3914    3280(72)          3198.2644         3174.4324                                                                  
  2731   137.4414    3278(72)          3198.9146         3174.7817                                                                  
  2732   137.4914    3207(71)          3199.5740         3175.1311                                                                  
  2733   137.5414    3112(71)          3200.2429         3175.4802                                                                  
  2734   137.5914    3170(71)          3200.9221         3175.8296                                                                  
  2735   137.6414    3278(73)          3201.6116         3176.1790                                                                  
  2736   137.6914    3460(75)          3202.3120         3176.5283                                                                  
  2737   137.7414    3312(73)          3203.0232         3176.8777                                                                  
  2738   137.7914    3454(75)          3203.7461         3177.2271                                                                  
  2739   137.8414    3421(75)          3204.0139         3177.5764                                                                  
  2740   137.8914    3366(74)          3204.7634         3177.9255                                                                  
  2741   137.9414    3426(75)          3205.5264         3178.2749                                                                  
  2742   137.9914    3349(75)          3206.3025         3178.6243                                                                  
  2743   138.0414    3455(76)          3206.7869         3178.9736                                                                  
  2744   138.0914    3361(75)          3207.5928         3179.3230                                                                  
  2745   138.1414    3416(76)          3208.4138         3179.6724                                                                  
  2746   138.1914    3363(75)          3209.2500         3180.0215                                                                  
  2747   138.2414    3394(76)          3210.1028         3180.3708                                                                  
  2748   138.2914    3309(75)          3210.9727         3180.7202                                                                  
  2749   138.3414    3148(73)          3211.8601         3181.0696                                                                  
  2750   138.3914    3232(74)          3212.7659         3181.4189                                                                  
  2751   138.4414    3232(75)          3213.6912         3181.7683                                                                  
  2752   138.4914    3240(75)          3214.6365         3182.1177                                                                  
  2753   138.5414    3313(76)          3215.1079         3182.4670                                                                  
  2754   138.5914    3280(76)          3216.0996         3182.8164                                                                  
  2755   138.6414    3273(76)          3217.1138         3183.1655                                                                  
  2756   138.6914    3274(76)          3218.1526         3183.5149                                                                  
  2757   138.7414    3408(77)          3219.2170         3183.8643                                                                  
  2758   138.7914    3339(77)          3220.3079         3184.2136                                                                  
  2759   138.8414    3282(76)          3221.4270         3184.5630                                                                  
  2760   138.8914    3349(77)          3222.5752         3184.9121                                                                  
  2761   138.9414    3267(76)          3223.7549         3185.2615                                                                  
  2762   138.9914    3147(75)          3224.9673         3185.6108                                                                  
  2763   139.0414    3245(77)          3226.2141         3185.9602                                                                  
  2764   139.0914    3153(76)          3227.4976         3186.3096                                                                  
  2765   139.1414    3195(76)          3228.8191         3186.6589                                                                  
  2766   139.1914    3205(76)          3230.1814         3187.0083                                                                  
  2767   139.2414    3354(78)          3231.5869         3187.3577                                                                  
  2768   139.2914    3209(77)          3233.0378         3187.7070                                                                  
  2769   139.3414    3281(78)          3234.5371         3188.0562                                                                  
  2770   139.3914    3312(78)          3236.2080         3188.5261                                                                  
  2771   139.4414    3159(77)          3238.6768         3189.7393                                                                  
  2772   139.4914    3370(79)          3241.2036         3190.9524                                                                  
  2773   139.5414    3206(78)          3243.7917         3192.1653                                                                  
  2774   139.5914    3281(79)          3246.4460         3193.3784                                                                  
  2775   139.6414    3421(80)          3249.1694         3194.5911                                                                  
  2776   139.6914    3403(80)          3251.9690         3195.8042                                                                  
  2777   139.7414    3348(80)          3254.8486         3197.0173                                                                  
  2778   139.7914    3269(79)          3257.8142         3198.2302                                                                  
  2779   139.8414    3310(80)          3260.8721         3199.4434                                                                  
  2780   139.8914    3309(80)          3264.0283         3200.6560                                                                  
  2781   139.9414    3289(80)          3267.2925         3201.8691                                                                  
  2782   139.9914    3215(79)          3270.6716         3203.0820                                                                  
  2783   140.0414    3138(78)          3274.1758         3204.2952                                                                  
  2784   140.0914    3360(81)          3277.8154         3205.5083                                                                  
  2785   140.1414    3364(81)          3281.6021         3206.7209                                                                  
  2786   140.1914    3254(80)          3285.5518         3207.9338                                                                  
  2787   140.2414    3215(80)          3289.6819         3209.1470                                                                  
  2788   140.2914    3225(80)          3294.0137         3210.3601                                                                  
  2789   140.3414    3462(83)          3298.5745         3211.5730                                                                  
  2790   140.3914    3294(81)          3303.3999         3212.7856                                                                  
  2791   140.4414    3229(81)          3308.5430         3213.9988                                                                  
  2792   140.4914    3276(82)          3314.0706         3215.2119                                                                  
  2793   140.5414    3427(84)          3320.0796         3216.4248                                                                  
  2794   140.5914    3432(84)          3326.7075         3217.6379                                                                  
  2795   140.6414    3329(83)          3334.1455         3218.8506                                                                  
  2796   140.6914    3313(83)          3342.6719         3220.0637                                                                  
  2797   140.7414    3456(85)          3352.6660         3221.2769                                                                  
  2798   140.7914    3446(85)          3364.6560         3222.4897                                                                  
  2799   140.8414    3370(84)          3379.3613         3223.7029                                                                  
  2800   140.8914    3483(85)          3397.7388         3224.9155                                                                  
  2801   140.9414    3392(85)          3421.0674         3226.1287                                                                  
  2802   140.9914    3415(85)          3450.9778         3227.3416                                                                  
  2803   141.0414    3576(87)          3489.5378         3228.5547                                                                  
  2804   141.0914    3585(87)          3539.2998         3229.7678                                                                  
  2805   141.1414    3642(88)          3603.3171         3230.9805                                                                  
  2806   141.1914    3668(89)          3685.2322         3232.1934                                                                  
  2807   141.2414    3921(92)          3789.1306         3233.4065                                                                  
  2808   141.2914    4073(94)          3919.5220         3234.6196                                                                  
  2809   141.3414    4123(95)          4081.1699         3235.8325                                                                  
  2810   141.3914    4369(98)          4278.8003         3237.0454                                                                  
  2811   141.4414    4510(100)          4517.0479         3238.2583                                                                 
  2812   141.4914    4997(105)          4799.7290         3239.4714                                                                 
  2813   141.5414    5150(107)          5129.6416         3240.6846                                                                 
  2814   141.5914    5638(112)          5508.0620         3241.8975                                                                 
  2815   141.6414    6159(117)          5934.1641         3243.1101                                                                 
  2816   141.6914    6896(125)          6405.1514         3244.3232                                                                 
  2817   141.7414    7250(128)          6915.1753         3245.5364                                                                 
  2818   141.7914    7795(133)          7455.6514         3246.7493                                                                 
  2819   141.8414    8390(138)          8015.1182         3247.9624                                                                 
  2820   141.8914    8973(143)          8579.2207         3249.1750                                                                 
  2821   141.9414    9585(148)          9131.7188         3250.3882                                                                 
  2822   141.9914    10187(153)          9653.9941         3251.6011                                                                
  2823   142.0414    10543(156)         10126.4521         3252.8142                                                                
  2824   142.0914    10907(159)         10529.3691         3254.0273                                                                
  2825   142.1414    11023(161)         10844.1064         3255.2400                                                                
  2826   142.1914    11353(163)         11055.1055         3256.4531                                                                
  2827   142.2414    11269(163)         11151.0322         3257.6660                                                                
  2828   142.2914    11366(164)         11126.7051         3258.8792                                                                
  2829   142.3414    11116(163)         10983.7461         3260.0923                                                                
  2830   142.3914    11006(162)         10730.4248         3261.3049                                                                
  2831   142.4414    10811(161)         10380.1650         3262.5178                                                                
  2832   142.4914    10529(159)          9950.3330         3263.7310                                                                
  2833   142.5414    10674(161)          9460.2373         3264.9441                                                                
  2834   142.5914    10550(160)          8929.7061         3266.1570                                                                
  2835   142.6414    10118(157)          8378.0977         3267.3696                                                                
  2836   142.6914    9854(155)          7822.7500         3268.5828                                                                 
  2837   142.7414    9396(152)          7279.3672         3269.7959                                                                 
  2838   142.7914    8987(149)          6760.9229         3271.0088                                                                 
  2839   142.8414    8667(147)          6277.5664         3272.2219                                                                 
  2840   142.8914    8158(142)          5836.6899         3273.4346                                                                 
  2841   142.9414    7760(139)          5442.5093         3274.6477                                                                 
  2842   142.9914    7143(134)          5097.1108         3275.8608                                                                 
  2843   143.0414    6785(131)          4800.2612         3277.0737                                                                 
  2844   143.0914    6494(128)          4549.9736         3278.2869                                                                 
  2845   143.1414    6065(124)          4343.0234         3279.4995                                                                 
  2846   143.1914    5872(122)          4175.1611         3280.7126                                                                 
  2847   143.2414    5603(120)          4041.8943         3281.9255                                                                 
  2848   143.2914    5413(118)          3938.5874         3283.1387                                                                 
  2849   143.3414    5024(114)          3860.8159         3284.3518                                                                 
  2850   143.3914    4942(113)          3804.6074         3285.5645                                                                 
  2851   143.4414    4803(112)          3766.5471         3286.7773                                                                 
  2852   143.4914    4647(110)          3744.0051         3287.9905                                                                 
  2853   143.5414    4615(110)          3735.1567         3289.2036                                                                 
  2854   143.5914    4503(109)          3739.0898         3290.4165                                                                 
  2855   143.6414    4465(109)          3755.8872         3291.6292                                                                 
  2856   143.6914    4401(108)          3786.7532         3292.8423                                                                 
  2857   143.7414    4640(111)          3834.1055         3294.0554                                                                 
  2858   143.7914    4708(112)          3901.7305         3295.2683                                                                 
  2859   143.8414    4594(111)          3994.9224         3296.4814                                                                 
  2860   143.8914    4562(111)          4120.5620         3297.6941                                                                 
  2861   143.9414    4995(116)          4287.3584         3298.9072                                                                 
  2862   143.9914    5136(118)          4505.6104         3300.1204                                                                 
  2863   144.0414    5390(121)          4787.2051         3301.3333                                                                 
  2864   144.0914    5740(126)          5145.2637         3302.5464                                                                 
  2865   144.1414    6149(130)          5593.4551         3303.7590                                                                 
  2866   144.1914    6502(134)          6145.7939         3304.9722                                                                 
  2867   144.2414    7030(140)          6814.8091         3306.1851                                                                 
  2868   144.2914    7735(147)          7610.8262         3307.3982                                                                 
  2869   144.3414    8566(155)          8540.4668         3308.6113                                                                 
  2870   144.3914    9493(164)          9604.8682         3309.8240                                                                 
  2871   144.4414    10690(174)         10799.6660         3311.0369                                                                
  2872   144.4914    11689(183)         12111.8877         3312.2500                                                                
  2873   144.5414    13484(197)         13520.1914         3313.4631                                                                
  2874   144.5914    14929(207)         14995.1270         3314.6760                                                                
  2875   144.6414    16528(219)         16497.5000         3315.8889                                                                
  2876   144.6914    18241(230)         17981.9004         3317.1018                                                                
  2877   144.7414    20245(243)         19395.0684         3318.3149                                                                
  2878   144.7914    21889(253)         20679.7715         3319.5278                                                                
  2879   144.8414    22665(258)         21777.3301         3320.7410                                                                
  2880   144.8914    23327(263)         22631.4727         3321.9536                                                                
  2881   144.9414    23946(267)         23194.6562         3323.1667                                                                
  2882   144.9914    24233(269)         23432.4219         3324.3799                                                                
  2883   145.0414    24254(270)         23329.5312         3325.5928                                                                
  2884   145.0914    23817(268)         22892.9199         3326.8059                                                                
  2885   145.1414    22689(262)         22149.7578         3328.0186                                                                
  2886   145.1914    21940(258)         21142.8496         3329.2317                                                                
  2887   145.2414    21188(254)         19925.9434         3330.4446                                                                
  2888   145.2914    20726(252)         18557.2363         3331.6577                                                                
  2889   145.3414    19999(248)         17094.9395         3332.8708                                                                
  2890   145.3914    19443(245)         15594.3594         3334.0835                                                                
  2891   145.4414    18767(241)         14103.6562         3335.2964                                                                
  2892   145.4914    18428(240)         12665.0225         3336.5095                                                                
  2893   145.5414    18461(240)         11311.8193         3337.7227                                                                
  2894   145.5914    18148(239)         10068.6270         3338.9355                                                                
  2895   145.6414    17579(236)          8951.7031         3340.1484                                                                
  2896   145.6914    16907(232)          7968.2930         3341.3613                                                                
  2897   145.7414    15880(225)          7119.6816         3342.5745                                                                
  2898   145.7914    14709(217)          6401.1045         3343.7876                                                                
  2899   145.8414    13649(209)          5803.5146         3345.0005                                                                
  2900   145.8914    12485(201)          5315.1343         3346.2131                                                                
  2901   145.9414    11096(190)          4922.1895         3347.4263                                                                
  2902   145.9914    9498(176)          4610.8926         3348.6394                                                                 
  2903   146.0414    8234(164)          4367.6870         3349.8523                                                                 
  2904   146.0914    7725(159)          4180.0278         3351.0654                                                                 
  2905   146.1414    7115(153)          4036.8030         3352.2781                                                                 
  2906   146.1914    6644(148)          3928.3557         3353.4912                                                                 
  2907   146.2414    5943(141)          3846.7717         3354.7041                                                                 
  2908   146.2914    5421(134)          3785.6089         3355.9172                                                                 
  2909   146.3414    5223(132)          3739.7891         3357.1304                                                                 
  2910   146.3914    4739(126)          3705.4155         3358.3430                                                                 
  2911   146.4414    4410(122)          3679.5293         3359.5562                                                                 
  2912   146.4914    4349(121)          3659.9771         3360.7690                                                                 
  2913   146.5414    4410(123)          3645.1946         3361.9822                                                                 
  2914   146.5914    3984(117)          3634.0679         3363.1953                                                                 
  2915   146.6414    4052(118)          3625.8159         3364.4080                                                                 
  2916   146.6914    3794(114)          3619.8872         3365.6208                                                                 
  2917   146.7414    3790(115)          3615.9001         3366.8340                                                                 
  2918   146.7914    3748(114)          3613.5791         3368.0471                                                                 
  2919   146.8414    3737(114)          3612.7173         3369.2600                                                                 
  2920   146.8914    3703(114)          3613.1499         3370.4727                                                                 
  2921   146.9414    3642(113)          3614.7344         3371.6858                                                                 
  2922   146.9914    3434(110)          3617.3367         3372.8989                                                                 
  2923   147.0414    3610(113)          3620.8235         3374.1118                                                                 
  2924   147.0914    3687(115)          3625.0569         3375.3250                                                                 
  2925   147.1414    3682(115)          3629.8896         3376.5376                                                                 
  2926   147.1914    3480(112)          3635.1697         3377.7507                                                                 
  2927   147.2414    3477(112)          3640.7324         3378.9639                                                                 
  2928   147.2914    3651(115)          3646.4060         3380.1768                                                                 
  2929   147.3414    3712(117)          3652.0144         3381.3899                                                                 
  2930   147.3914    3496(113)          3657.3762         3382.6025                                                                 
  2931   147.4414    3637(116)          3662.3157         3383.8157                                                                 
  2932   147.4914    3783(119)          3666.6575         3385.0286                                                                 
  2933   147.5414    3628(116)          3670.2383         3386.2417                                                                 
  2934   147.5914    3652(117)          3672.9114         3387.4548                                                                 
  2935   147.6414    3651(117)          3674.5518         3388.6675                                                                 
  2936   147.6914    3648(118)          3675.0654         3389.8804                                                                 
  2937   147.7414    3575(117)          3674.3911         3391.0935                                                                 
  2938   147.7914    3602(117)          3672.5059         3392.3066                                                                 
  2939   147.8414    3702(119)          3669.4260         3393.5195                                                                 
  2940   147.8914    3602(118)          3665.2090         3394.7324                                                                 
  2941   147.9414    3593(118)          3659.9414         3395.9453                                                                 
  2942   147.9914    3607(118)          3653.7446         3397.1584                                                                 
  2943   148.0414    3526(117)          3646.7620         3398.3716                                                                 
  2944   148.0914    3557(118)          3639.1565         3399.5845                                                                 
  2945   148.1414    3597(119)          3631.1077         3400.7971                                                                 
  2946   148.1914    3665(121)          3622.7976         3402.0103                                                                 
  2947   148.2414    3598(120)          3614.4236         3403.2234                                                                 
  2948   148.2914    3739(122)          3606.1860         3404.4363                                                                 
  2949   148.3414    3485(118)          3598.2915         3405.6494                                                                 
  2950   148.3914    3529(119)          3590.9531         3406.8621                                                                 
  2951   148.4414    3583(121)          3584.3843         3408.0752                                                                 
  2952   148.4914    3506(120)          3578.8120         3409.2881                                                                 
  2953   148.5414    3616(122)          3574.4722         3410.5012                                                                 
  2954   148.5914    3729(124)          3571.6104         3411.7144                                                                 
  2955   148.6414    3667(123)          3570.4873         3412.9270                                                                 
  2956   148.6914    3560(122)          3571.3779         3414.1401                                                                 
  2957   148.7414    3409(119)          3574.5750         3415.3530                                                                 
  2958   148.7914    3513(121)          3580.3865         3416.5662                                                                 
  2959   148.8414    3556(122)          3589.1335         3417.7791                                                                 
  2960   148.8914    3586(123)          3601.1431         3418.9919                                                                 
  2961   148.9414    3577(123)          3616.7549         3420.2048                                                                 
  2962   148.9914    3630(125)          3636.2922         3421.4180                                                                 
  2963   149.0414    3576(124)          3660.0618         3422.6311                                                                 
  2964   149.0914    3700(126)          3688.3345         3423.8440                                                                 
  2965   149.1414    3820(129)          3721.3201         3425.0566                                                                 
  2966   149.1914    3645(126)          3759.1875         3426.2698                                                                 
  2967   149.2414    3774(129)          3801.9849         3427.4829                                                                 
  2968   149.2914    3793(129)          3849.6589         3428.6958                                                                 
  2969   149.3414    3845(130)          3902.0276         3429.9089                                                                 
  2970   149.3914    3803(130)          3958.7449         3431.1216                                                                 
  2971   149.4414    4158(136)          4019.3608         3432.3347                                                                 
  2972   149.4914    4173(137)          4083.2080         3433.5476                                                                 
  2973   149.5414    4333(140)          4149.4712         3434.7607                                                                 
  2974   149.5914    4293(140)          4217.1719         3435.9739                                                                 
  2975   149.6414    4347(141)          4285.1606         3437.1865                                                                 
  2976   149.6914    4548(144)          4351.0278         3437.2109                                                                 
  2977   149.7414    4413(143)          4414.5474         3437.2109                                                                 
  2978   149.7914    4594(146)          4474.2969         3437.2109                                                                 
  2979   149.8414    4641(147)          4528.7944         3437.2109                                                                 
  2980   149.8914    4740(149)          4576.5645         3437.2109                                                                 
  2981   149.9414    4882(151)          3437.2109         3437.2109                                                                 
_pd_proc_number_of_points   2799
 
 
# The following lines are used to test the character set of files sent by     
# network email or other means. They are not part of the CIF data set.        
# abcdefghijklmnopqrstuvwxyzABCDEFGHIJKLMNOPQRSTUVWXYZ0123456789              
# !@#$%^&*()_+{}:"~<>?|\-=[];'`,./ 




_cell_formula_units_Z
1
_diffrn_source
'nuclear reactor'
_cell_length_a
3.96592(8)
_cell_length_b
3.96592(8)
_cell_length_c
4.02904(7)
_chemical_formula_analytical
K0.48Na0.48Li0.04Nb0.98Mn0.02O3
_diffrn_radiation_type
'neutron'
_publ_contact_author_email
manuel.hinterstein@gmail.com
_symmetry_space_group_name_Hall
'P 4 -2'
_chemical_formula_weight
170.23144
_refine_ls_number_restraints
0
_computing_structure_refinement
FULLPROF
_database_code_depnum_ccdc_archive
'CCDC 1828080'
_symmetry_space_group_name_H-M
'P 4 m m'
_cell_angle_gamma
90.0000
_cell_measurement_temperature
526
_pd_char_colour
grey
_refine_ls_number_reflns
56
_diffrn_source_type
'FRMII/SPODI'
_publ_requested_journal
J.Appl.Crystallogr.
_pd_meas_number_of_points
3014
_cell_volume
63.371(2)
_publcif_datablock.id
'{d5f9e3f5-70ad-42d7-baff-8cab751434f3}'
_symmetry_cell_setting
Tetragonal
_diffrn_ambient_temperature
526
_chemical_name_common
KNN
_refine_ls_R_I_factor
0.036882
_diffrn_measurement_device_type
'powder diffractometer'
_publ_contact_author_name
'Manuel Hinterstein'
_cell_angle_alpha
90.0000
_refine_ls_number_parameters
41
_chemical_formula_sum
K0.48Na0.48Li0.04Nb0.98Mn0.02O3
_cell_angle_beta
90.0000
_pd_proc_wavelength
1.548165
loop_
_publ_author_name
_publ_author_address

;Hinterstein, Manuel
;


loop_
_atom_type_symbol
_atom_type_scat_length_neutron
_atom_type_scat_source
O 0.58030 V.F._Sears_Neutron_News_3_26_(1992)
Na 0.36300 V.F._Sears_Neutron_News_3_26_(1992)
K 0.36700 V.F._Sears_Neutron_News_3_26_(1992)
Li -0.19000 V.F._Sears_Neutron_News_3_26_(1992)
Nb 0.70540 V.F._Sears_Neutron_News_3_26_(1992)
Mn -0.37300 V.F._Sears_Neutron_News_3_26_(1992)

loop_
_symmetry_equiv_pos_as_xyz
x,y,z
-y,x,z
-x,-y,z
y,-x,z
-x,y,z
y,x,z
x,-y,z
-y,-x,z

loop_
_atom_site_label
_atom_site_fract_x
_atom_site_fract_y
_atom_site_fract_z
_atom_site_u_iso_or_equiv
_atom_site_occupancy
_atom_site_adp_type
_atom_site_type_symbol
O1 0.50000 0.00000 0.520(2) 0.0100(6) 1.00000 Uiso O
O2 0.50000 0.50000 0.010(3) 0.0152(7) 1.00000 Uiso O
Na1 0.00000 0.00000 0.00000 0.0168(9) 0.48000 Uiso Na
K1 0.00000 0.00000 0.00000 0.0168(9) 0.48000 Uiso K
Li1 0.00000 0.00000 0.00000 0.0168(9) 0.04000 Uiso Li
Nb1 0.50000 0.50000 0.478(2) 0.0008(6) 0.98000 Uiso Nb
Mn1 0.50000 0.50000 0.478(2) 0.0008(6) 0.01000 Uiso Mn



loop_
_refln_index_h
_refln_index_k
_refln_index_l
_refln_mult
_pd_refln_phase_id
_refln_observed_status
_refln_f_squared_meas
_refln_f_squared_calc
_refln_phase_calc
_refln_d_spacing
0 0 1 2 1 o 1.0578 0.8342 180.66 4.02904
1 0 0 4 1 o 1.0893 0.8474 180.00 3.96592
1 0 1 8 1 o 0.2670 0.2207 343.58 2.82638
1 1 0 4 1 o 0.2399 0.1950 0.00 2.80433
1 1 1 8 1 o 2.2330 1.7628 11.84 2.30168
0 0 2 2 1 o 8.0277 6.6736 3.46 2.01452
2 0 0 4 1 o 8.5389 6.9754 0.00 1.98296
1 0 2 8 1 o 0.9369 0.7753 172.12 1.79609
2 0 1 8 1 o 1.0246 0.8535 180.41 1.77915
2 1 0 8 1 o 1.0595 0.8155 180.00 1.77361
1 1 2 8 1 o 0.4017 0.3373 317.75 1.63612
2 1 1 16 1 o 0.3041 0.2307 344.33 1.62329
2 0 2 8 1 o 7.1469 6.0636 3.21 1.41319
2 2 0 4 1 o 7.8127 6.3461 0.00 1.40216
0 0 3 2 1 o 0.7339 0.6753 180.61 1.34301
2 1 2 16 1 o 0.9026 0.7484 171.69 1.33120
2 2 1 8 1 o 1.0571 0.8683 180.17 1.32426
3 0 0 4 1 o 0.9955 0.7859 180.00 1.32197
1 0 3 8 1 o 0.4339 0.3223 318.94 1.27206
3 0 1 8 1 o 0.2633 0.2402 345.00 1.25609
3 1 0 8 1 o 0.2101 0.1717 0.00 1.25413
1 1 3 8 1 o 1.9458 1.6763 35.13 1.21127
3 1 1 16 1 o 1.4931 1.2110 13.30 1.19746
2 2 2 8 1 o 6.5523 5.5188 2.96 1.15084
2 0 3 8 1 o 0.7411 0.6895 179.87 1.11198
3 0 2 8 1 o 0.7892 0.7234 171.28 1.10525
3 2 0 8 1 o 0.8677 0.7583 180.00 1.09995
2 1 3 16 1 o 0.4110 0.3249 320.19 1.07069
3 1 2 16 1 o 0.3381 0.3029 317.34 1.06468
3 2 1 16 1 o 0.2885 0.2492 345.60 1.06111
0 0 4 2 1 o 5.0417 4.3420 5.84 1.00726
4 0 0 4 1 o 6.2323 5.2793 0.00 0.99148
1 0 4 8 1 o 0.7752 0.6091 161.25 0.97627
2 2 3 8 1 o 0.7658 0.7005 179.16 0.96989
3 2 2 16 1 o 0.7588 0.7001 170.88 0.96541
4 0 1 8 1 o 1.0912 0.8861 179.73 0.96276
4 1 0 8 1 o 0.9866 0.7325 180.00 0.96188
1 1 4 8 1 o 0.7246 0.6485 299.32 0.94797
3 0 3 8 1 o 0.4157 0.3274 321.35 0.94213
4 1 1 16 1 o 0.3337 0.2577 346.14 0.93558
3 3 0 4 1 o 0.2246 0.1567 0.00 0.93478
3 1 3 16 1 o 1.3713 1.2301 38.73 0.91662
3 3 1 8 1 o 1.0012 0.8148 15.15 0.91059
2 0 4 8 1 o 4.4380 3.9496 5.27 0.89804
4 0 2 8 1 o 4.9274 4.5954 2.41 0.88958
4 2 0 8 1 o 5.8787 4.8276 360.00 0.88681
2 1 4 16 1 o 0.7320 0.5938 160.48 0.87587
4 1 2 16 1 o 0.7621 0.6784 170.50 0.86801
4 2 1 16 1 o 1.1027 0.8898 179.53 0.86608
3 2 3 16 1 o 0.3512 0.3300 322.42 0.85097
3 3 2 8 1 o 0.2989 0.2773 317.40 0.84794
2 2 4 8 1 o 4.0148 3.5994 4.68 0.81806
4 2 2 16 1 o 4.8506 4.2045 2.12 0.81164
0 0 5 2 1 o 0.4363 0.4280 175.84 0.80581



# powder data simulated using PLATON:

data_tetragonal_1_ND_simulated_1.5482

_publcif_pd_cifplot 'simulated 2021-03-25'

