data_orthorhombic_1_ND
 
_pd_block_id    300k_300mm_varH
#==============================================================================             
# 9. INSTRUMENT CHARACTERIZATION                                                            
                                                                                            
_exptl_special_details                                                                      
; ?                                                                                         
;                                                                                           
                                                                                            
# if regions of the data are excluded, the reason(s) are supplied here:                     
_pd_proc_info_excluded_regions                                                              
; ?                                                                                         
;                                                                                           
                                                                                            
# The following item is used to identify the equipment used to record                       
# the powder pattern when the diffractogram was measured at a laboratory                    
# other than the authors' home institution, e.g. when neutron or synchrotron                
# radiation is used.                                                                        
                                                                                            
_pd_instr_location                                                                          
; ?                                                                                         
;                                                                                           
_pd_calibration_special_details           # description of the method used                  
                                          # to calibrate the instrument                     
; ?                                                                                         
;                                                                                           
                                                                                            
_diffrn_ambient_temperature    ?                                                            
_diffrn_source                 ?                                                            
_diffrn_source_target          ?                                                            
_diffrn_source_type            ?                                                            
_diffrn_measurement_device_type ?                                                            
_diffrn_detector               ?                                                            
_diffrn_detector_type          ?  # make or model of detector                               
                                                                                            
_pd_meas_scan_method           ?  # options are 'step', 'cont',                             
                                  # 'tof', 'fixed' or                                       
                                  # 'disp' (= dispersive)                                   
_pd_meas_special_details                                                                    
;  ?                                                                                        
;                                                                                           
                                                                                            
# The following two items identify the program(s) used (if appropriate).                    
_computing_data_collection        ?                                                         
_computing_data_reduction         ?                                                         
                                                                                            
# Describe any processing performed on the data, prior to refinement.                       
# For example: a manual Lp correction or a precomputed absorption correction                
_pd_proc_info_data_reduction      ?                                                         
                                                                                            
# The following item is used for angular dispersive measurements only.                      
                                                                                            
_diffrn_radiation_monochromator   ?                                                         
                                                                                            
# The following items are used to define the size of the instrument.                        
# Not all distances are appropriate for all instrument types.                               
                                                                                            
_pd_instr_dist_src/mono           ?                                                         
_pd_instr_dist_mono/spec          ?                                                         
_pd_instr_dist_src/spec           ?                                                         
_pd_instr_dist_spec/anal          ?                                                         
_pd_instr_dist_anal/detc          ?                                                         
_pd_instr_dist_spec/detc          ?                                                         
                                                                                            
# 10. Specimen size and mounting information                                                
                                                                                            
# The next three fields give the specimen dimensions in mm.  The equatorial                 
# plane contains the incident and diffracted beam.                                          
                                                                                            
_pd_spec_size_axial               ?       # perpendicular to                                
                                          # equatorial plane                                
                                                                                            
_pd_spec_size_equat               ?       # parallel to                                     
                                          # scattering vector                               
                                          # in transmission                                 
                                                                                            
_pd_spec_size_thick               ?       # parallel to                                     
                                          # scattering vector                               
                                          # in reflection                                   
                                                                                            
_pd_spec_mounting                         # This field should be                            
                                          # used to give details of the                     
                                          # container.                                      
; ?                                                                                         
;                                                                                           
                                                                                            
_pd_spec_mount_mode               ?       # options are 'reflection'                        
                                          # or 'transmission'                               
                                                                                            
_pd_spec_shape                    ?       # options are 'cylinder'                          
                                          # 'flat_sheet' or 'irregular'                     
                                                                                            
     
_diffrn_radiation_probe                neutrons 
_diffrn_radiation_wavelength            1.5482
     
#  The following profile R-factors are NOT CORRECTED for background
#  The sum is extended to all non-excluded points.
#  These are the current CIF standard
 
_pd_proc_ls_prof_R_factor               24.2336
_pd_proc_ls_prof_wR_factor              32.1216
_pd_proc_ls_prof_wR_expected             1.5896
 
#  The following profile R-factors are CORRECTED for background
#  The sum is extended to all non-excluded points.
#  These items are not in the current CIF standard, but are defined above
 
_pd_proc_ls_prof_cR_factor               49.9823
_pd_proc_ls_prof_cwR_factor              52.1537
_pd_proc_ls_prof_cwR_expected             2.5809
 
#  The following items are not in the CIF standard, but are defined above
 
_pd_proc_ls_prof_chi2               408.3564
_pd_proc_ls_prof_echi2              409.9646
  
_pd_proc_ls_background_function   
;   FullProf Background function number  
;                                                                              
                                                                               
_exptl_absorpt_process_details                                                 
;   FullProf Absorption/surface roughness correction    
 No correction is applied ?.                                                   
;                                                                              
                                                                               
_pd_proc_ls_profile_function                                                   
;                                                                              
;                                                                              
_pd_proc_ls_peak_cutoff 0.00500                                                
_pd_calc_method  "   Rietveld Refinement" 
                                                                               
#---- raw/calc data loop -----   
_pd_meas_2theta_range_min       1.250000
_pd_meas_2theta_range_max     151.899994
_pd_meas_2theta_range_inc       0.050019
_pd_proc_2theta_range_min       1.215820
_pd_proc_2theta_range_max     151.865814
_pd_proc_2theta_range_inc       0.050019
 
loop_
_pd_proc_point_id
_pd_proc_2theta_corrected   
_pd_proc_intensity_total
_pd_calc_intensity_total
_pd_proc_intensity_bkg_calc
 
   177    10.0158    2897(198)          2682.1692         2682.1692                                                                 
   178    10.0658    2691(190)          2682.1692         2682.1692                                                                 
   179    10.1158    2840(195)          2682.1692         2682.1692                                                                 
   180    10.1658    2910(196)          2682.1692         2682.1692                                                                 
   181    10.2158    3018(199)          2682.1692         2682.1692                                                                 
   182    10.2658    2893(194)          2682.1692         2682.1692                                                                 
   183    10.3158    3162(203)          2682.1692         2682.1692                                                                 
   184    10.3658    2958(195)          2682.1692         2682.1692                                                                 
   185    10.4158    3022(197)          2682.1692         2682.1692                                                                 
   186    10.4658    2810(189)          2682.1692         2682.1692                                                                 
   187    10.5158    2835(190)          2682.1692         2682.1692                                                                 
   188    10.5658    3101(198)          2682.2380         2682.1692                                                                 
   189    10.6158    3074(196)          2682.2388         2682.1692                                                                 
   190    10.6658    2932(191)          2682.2393         2682.1692                                                                 
   191    10.7158    2873(188)          2682.2400         2682.1692                                                                 
   192    10.7658    2788(185)          2682.2405         2682.1692                                                                 
   193    10.8158    2742(183)          2682.2412         2682.1692                                                                 
   194    10.8658    2895(187)          2682.2417         2682.1692                                                                 
   195    10.9158    2863(186)          2682.2424         2682.1692                                                                 
   196    10.9658    2829(184)          2682.2429         2682.1692                                                                 
   197    11.0158    2789(182)          2682.2437         2682.1692                                                                 
   198    11.0658    2901(185)          2682.2444         2682.1692                                                                 
   199    11.1158    2707(178)          2682.2449         2682.1692                                                                 
   200    11.1658    2835(182)          2682.2456         2682.1692                                                                 
   201    11.2158    2818(181)          2682.2463         2682.1692                                                                 
   202    11.2658    2920(184)          2682.2471         2682.1692                                                                 
   203    11.3158    2750(178)          2682.2478         2682.1692                                                                 
   204    11.3658    2749(177)          2682.2485         2682.1692                                                                 
   205    11.4158    2778(178)          2682.2493         2682.1692                                                                 
   206    11.4658    2778(177)          2682.2500         2682.1692                                                                 
   207    11.5158    2649(172)          2682.2507         2682.1692                                                                 
   208    11.5658    2525(168)          2682.2515         2682.1692                                                                 
   209    11.6158    2805(176)          2682.2522         2682.1692                                                                 
   210    11.6658    2823(176)          2682.2529         2682.1692                                                                 
   211    11.7158    2642(170)          2683.8516         2683.7671                                                                 
   212    11.7658    2526(166)          2681.8040         2681.7185                                                                 
   213    11.8158    2595(168)          2679.7561         2679.6699                                                                 
   214    11.8658    2637(168)          2677.7085         2677.6216                                                                 
   215    11.9158    2611(167)          2675.6609         2675.5730                                                                 
   216    11.9658    2703(170)          2673.6130         2673.5244                                                                 
   217    12.0158    2647(167)          2671.5654         2671.4758                                                                 
   218    12.0658    2644(167)          2669.5176         2669.4272                                                                 
   219    12.1158    2681(167)          2667.4702         2667.3789                                                                 
   220    12.1658    2624(165)          2665.4226         2665.3303                                                                 
   221    12.2158    2679(166)          2663.3748         2663.2817                                                                 
   222    12.2658    2768(169)          2661.3271         2661.2332                                                                 
   223    12.3158    2507(160)          2659.2798         2659.1848                                                                 
   224    12.3658    2609(163)          2657.2322         2657.1362                                                                 
   225    12.4158    2735(166)          2655.1846         2655.0876                                                                 
   226    12.4658    2772(167)          2653.1372         2653.0393                                                                 
   227    12.5158    2820(168)          2651.0896         2650.9907                                                                 
   228    12.5658    2668(163)          2649.0420         2648.9421                                                                 
   229    12.6158    2608(160)          2646.9944         2646.8936                                                                 
   230    12.6658    2707(163)          2644.9470         2644.8452                                                                 
   231    12.7158    2650(161)          2642.8997         2642.7966                                                                 
   232    12.7658    2607(159)          2640.9009         2640.7480                                                                 
   233    12.8158    2776(164)          2638.8538         2638.6995                                                                 
   234    12.8658    2556(157)          2636.8071         2636.6511                                                                 
   235    12.9158    2619(158)          2634.7603         2634.6025                                                                 
   236    12.9658    2606(157)          2632.7134         2632.5540                                                                 
   237    13.0158    2462(153)          2630.6663         2630.5054                                                                 
   238    13.0658    2673(158)          2628.6194         2628.4568                                                                 
   239    13.1158    2693(159)          2626.5730         2626.4084                                                                 
   240    13.1658    2684(158)          2624.5261         2624.3599                                                                 
   241    13.2158    2579(154)          2622.4792         2622.3113                                                                 
   242    13.2658    2671(157)          2620.4329         2620.2629                                                                 
   243    13.3158    2523(152)          2618.3860         2618.2144                                                                 
   244    13.3658    2607(154)          2616.3394         2616.1658                                                                 
   245    13.4158    2596(153)          2614.2927         2614.1172                                                                 
   246    13.4658    2738(157)          2612.2463         2612.0688                                                                 
   247    13.5158    2629(153)          2610.1997         2610.0203                                                                 
   248    13.5658    2705(155)          2608.1531         2607.9717                                                                 
   249    13.6158    2497(149)          2606.1067         2605.9231                                                                 
   250    13.6658    2438(146)          2604.0603         2603.8748                                                                 
   251    13.7158    2560(150)          2602.0139         2601.8262                                                                 
   252    13.7658    2637(152)          2599.9675         2599.7776                                                                 
   253    13.8158    2640(151)          2597.9211         2597.7290                                                                 
   254    13.8658    2557(148)          2595.8750         2595.6807                                                                 
   255    13.9158    2705(152)          2593.8289         2593.6321                                                                 
   256    13.9658    2602(149)          2591.7825         2591.5835                                                                 
   257    14.0158    2586(148)          2589.7363         2589.5349                                                                 
   258    14.0658    2504(145)          2587.6904         2587.4866                                                                 
   259    14.1158    2517(145)          2585.6443         2585.4380                                                                 
   260    14.1658    2499(144)          2583.5981         2583.3894                                                                 
   261    14.2158    2591(147)          2581.5520         2581.3408                                                                 
   262    14.2658    2623(147)          2579.5063         2579.2925                                                                 
   263    14.3158    2541(145)          2577.4604         2577.2439                                                                 
   264    14.3658    2653(147)          2575.4146         2575.1953                                                                 
   265    14.4158    2498(143)          2573.3687         2573.1467                                                                 
   266    14.4658    2530(143)          2571.3230         2571.0984                                                                 
   267    14.5158    2510(142)          2569.2773         2569.0498                                                                 
   268    14.5658    2579(144)          2567.2317         2567.0012                                                                 
   269    14.6158    2570(143)          2565.1860         2564.9526                                                                 
   270    14.6658    2478(140)          2563.1406         2562.9043                                                                 
   271    14.7158    2484(140)          2561.0950         2560.8557                                                                 
   272    14.7658    2586(142)          2559.0496         2558.8071                                                                 
   273    14.8158    2586(142)          2557.0042         2556.7585                                                                 
   274    14.8658    2441(138)          2554.9592         2554.7102                                                                 
   275    14.9158    2459(138)          2552.9138         2552.6616                                                                 
   276    14.9658    2378(135)          2550.8687         2550.6130                                                                 
   277    15.0158    2411(136)          2548.8235         2548.5645                                                                 
   278    15.0658    2442(136)          2546.7786         2546.5161                                                                 
   279    15.1158    2401(135)          2544.7336         2544.4675                                                                 
   280    15.1658    2442(136)          2542.6887         2542.4189                                                                 
   281    15.2158    2510(137)          2540.6438         2540.3704                                                                 
   282    15.2658    2425(135)          2538.5994         2538.3220                                                                 
   283    15.3158    2287(130)          2536.5547         2536.2734                                                                 
   284    15.3658    2480(135)          2534.5100         2534.2249                                                                 
   285    15.4158    2409(133)          2532.4656         2532.1763                                                                 
   286    15.4658    2398(132)          2530.4214         2530.1279                                                                 
   287    15.5158    2490(135)          2528.3770         2528.0793                                                                 
   288    15.5658    2566(136)          2526.3328         2526.0308                                                                 
   289    15.6158    2375(131)          2524.2888         2523.9824                                                                 
   290    15.6658    2434(132)          2522.2449         2521.9338                                                                 
   291    15.7158    2467(133)          2520.2009         2519.8853                                                                 
   292    15.7658    2406(131)          2518.1570         2517.8367                                                                 
   293    15.8158    2502(133)          2516.1133         2515.7881                                                                 
   294    15.8658    2521(133)          2514.0698         2513.7397                                                                 
   295    15.9158    2380(129)          2512.0264         2511.6912                                                                 
   296    15.9658    2375(129)          2509.9829         2509.6426                                                                 
   297    16.0158    2316(127)          2507.9399         2507.5942                                                                 
   298    16.0658    2432(130)          2505.8967         2505.5457                                                                 
   299    16.1158    2380(128)          2503.8538         2503.4971                                                                 
   300    16.1658    2516(131)          2501.8108         2501.4485                                                                 
   301    16.2158    2482(130)          2499.7681         2499.3999                                                                 
   302    16.2658    2384(127)          2497.7256         2497.3516                                                                 
   303    16.3158    2461(129)          2495.6831         2495.3030                                                                 
   304    16.3658    2341(125)          2493.6409         2493.2544                                                                 
   305    16.4158    2266(123)          2491.5986         2491.2058                                                                 
   306    16.4658    2303(124)          2489.5569         2489.1575                                                                 
   307    16.5158    2241(122)          2487.5151         2487.1089                                                                 
   308    16.5658    2265(122)          2485.4734         2485.0603                                                                 
   309    16.6158    2433(126)          2483.4321         2483.0120                                                                 
   310    16.6658    2435(126)          2481.3909         2480.9634                                                                 
   311    16.7158    2360(124)          2479.3496         2478.9148                                                                 
   312    16.7658    2302(122)          2477.3088         2476.8662                                                                 
   313    16.8158    2290(121)          2475.2681         2474.8176                                                                 
   314    16.8658    2334(122)          2473.2278         2472.7693                                                                 
   315    16.9158    2441(125)          2471.1875         2470.7207                                                                 
   316    16.9658    2442(124)          2469.1475         2468.6721                                                                 
   317    17.0158    2364(122)          2467.1079         2466.6238                                                                 
   318    17.0658    2411(123)          2465.0684         2464.5752                                                                 
   319    17.1158    2350(121)          2463.0291         2462.5266                                                                 
   320    17.1658    2362(121)          2460.9900         2460.4780                                                                 
   321    17.2158    2449(123)          2458.9514         2458.4297                                                                 
   322    17.2658    2391(121)          2456.9128         2456.3811                                                                 
   323    17.3158    2444(122)          2454.8748         2454.3325                                                                 
   324    17.3658    2309(119)          2452.8367         2452.2839                                                                 
   325    17.4158    2311(118)          2450.7991         2450.2354                                                                 
   326    17.4658    2273(117)          2448.7622         2448.1870                                                                 
   327    17.5158    2315(118)          2446.7253         2446.1384                                                                 
   328    17.5658    2348(119)          2444.6887         2444.0898                                                                 
   329    17.6158    2424(120)          2442.6528         2442.0415                                                                 
   330    17.6658    2337(118)          2440.6169         2439.9929                                                                 
   331    17.7158    2373(118)          2438.5815         2437.9443                                                                 
   332    17.7658    2396(119)          2436.5466         2435.8958                                                                 
   333    17.8158    2270(115)          2434.5122         2433.8472                                                                 
   334    17.8658    2345(117)          2432.4785         2431.7988                                                                 
   335    17.9158    2336(116)          2430.4448         2429.7502                                                                 
   336    17.9658    2339(116)          2428.4119         2427.7017                                                                 
   337    18.0158    2412(118)          2426.3794         2425.6533                                                                 
   338    18.0658    2324(115)          2424.3474         2423.6047                                                                 
   339    18.1158    2258(113)          2422.3162         2421.5562                                                                 
   340    18.1658    2331(115)          2420.2854         2419.5076                                                                 
   341    18.2158    2371(116)          2418.2554         2417.4592                                                                 
   342    18.2658    2303(114)          2416.2258         2415.4106                                                                 
   343    18.3158    2401(116)          2414.1970         2413.3621                                                                 
   344    18.3658    2407(116)          2412.1689         2411.3135                                                                 
   345    18.4158    2413(116)          2410.1418         2409.2651                                                                 
   346    18.4658    2543(119)          2408.1152         2407.2166                                                                 
   347    18.5158    2414(115)          2406.0896         2405.1680                                                                 
   348    18.5658    2322(113)          2404.0649         2403.1194                                                                 
   349    18.6158    2375(114)          2402.0413         2401.0710                                                                 
   350    18.6658    2412(114)          2400.0183         2399.0225                                                                 
   351    18.7158    2367(113)          2397.9966         2396.9739                                                                 
   352    18.7658    2373(113)          2395.9758         2394.9253                                                                 
   353    18.8158    2374(113)          2393.9563         2392.8770                                                                 
   354    18.8658    2427(114)          2391.9380         2390.8284                                                                 
   355    18.9158    2322(111)          2389.9209         2388.7798                                                                 
   356    18.9658    2375(112)          2387.9053         2386.7312                                                                 
   357    19.0158    2359(111)          2385.8911         2384.6829                                                                 
   358    19.0658    2381(112)          2383.8784         2382.6343                                                                 
   359    19.1158    2368(111)          2381.8672         2380.5857                                                                 
   360    19.1658    2351(110)          2379.8577         2378.5371                                                                 
   361    19.2158    2432(112)          2377.8503         2376.4888                                                                 
   362    19.2658    2418(112)          2375.8447         2374.4402                                                                 
   363    19.3158    2452(112)          2373.8411         2372.3916                                                                 
   364    19.3658    2369(110)          2371.8398         2370.3433                                                                 
   365    19.4158    2384(110)          2369.8406         2368.2944                                                                 
   366    19.4658    2342(109)          2367.8440         2366.2461                                                                 
   367    19.5158    2412(110)          2365.8501         2364.1975                                                                 
   368    19.5658    2325(108)          2363.8591         2362.1489                                                                 
   369    19.6158    2340(108)          2361.8713         2360.1006                                                                 
   370    19.6658    2411(109)          2359.8865         2358.0520                                                                 
   371    19.7158    2339(108)          2357.9053         2356.0034                                                                 
   372    19.7658    2336(107)          2355.9280         2353.9551                                                                 
   373    19.8158    2266(105)          2353.9546         2351.9065                                                                 
   374    19.8658    2354(107)          2351.9856         2349.8579                                                                 
   375    19.9158    2272(105)          2350.0212         2347.8093                                                                 
   376    19.9658    2290(105)          2348.0620         2345.7607                                                                 
   377    20.0158    2293(105)          2346.1086         2343.7124                                                                 
   378    20.0658    2298(105)          2344.1609         2341.6638                                                                 
   379    20.1158    2391(107)          2342.2197         2339.6152                                                                 
   380    20.1658    2358(106)          2340.2856         2337.5667                                                                 
   381    20.2158    2261(104)          2338.3594         2335.5183                                                                 
   382    20.2658    2316(105)          2336.4414         2333.4697                                                                 
   383    20.3158    2427(107)          2334.5327         2331.4211                                                                 
   384    20.3658    2330(104)          2332.6343         2329.3728                                                                 
   385    20.4158    2286(103)          2330.7466         2327.3242                                                                 
   386    20.4658    2366(105)          2328.8713         2325.2756                                                                 
   387    20.5158    2260(102)          2327.0093         2323.2271                                                                 
   388    20.5658    2361(104)          2325.1626         2321.1787                                                                 
   389    20.6158    2226(101)          2323.3323         2319.1301                                                                 
   390    20.6658    2291(102)          2321.5203         2317.0815                                                                 
   391    20.7158    2391(104)          2319.7288         2315.0330                                                                 
   392    20.7658    2265(101)          2317.9604         2312.9846                                                                 
   393    20.8158    2363(103)          2316.2178         2310.9360                                                                 
   394    20.8658    2279(101)          2314.5042         2308.8875                                                                 
   395    20.9158    2344(102)          2312.8232         2306.8389                                                                 
   396    20.9658    2388(103)          2311.2087         2304.7905                                                                 
   397    21.0158    2263(100)          2309.6079         2302.7419                                                                 
   398    21.0658    2249(100)          2308.0557         2300.6934                                                                 
   399    21.1158    2361(102)          2306.5593         2298.6448                                                                 
   400    21.1658    2290(100)          2305.1277         2296.5962                                                                 
   401    21.2158    2313(100)          2303.7712         2294.5479                                                                 
   402    21.2658    2492(104)          2302.5022         2292.4993                                                                 
   403    21.3158    2327(100)          2301.3359         2290.4507                                                                 
   404    21.3658    2340(100)          2300.2922         2288.4023                                                                 
   405    21.4158    2394(101)          2299.3936         2286.3538                                                                 
   406    21.4658    2360(100)          2298.6719         2284.3052                                                                 
   407    21.5158    2279(99)          2298.1736         2282.2568                                                                  
   408    21.5658    2403(101)          2297.9832         2280.2080                                                                 
   409    21.6158    2299(99)          2298.3096         2278.1597                                                                  
   410    21.6658    2389(100)          2299.7349         2276.1111                                                                 
   411    21.7158    2287(98)          2303.9163         2274.0625                                                                  
   412    21.7658    2375(100)          2315.3008         2272.0142                                                                 
   413    21.8158    2682(106)          2344.7686         2269.9656                                                                 
   414    21.8658    3008(112)          2416.1978         2267.9170                                                                 
   415    21.9158    3999(129)          2575.9602         2265.8684                                                                 
   416    21.9658    5881(156)          2902.5837         2263.8201                                                                 
   417    22.0158    8628(188)          3509.0984         2261.7715                                                                 
   418    22.0658    12474(226)          4526.9346         2259.7229                                                                
   419    22.1158    17542(268)          6062.7319         2257.6743                                                                
   420    22.1658    22740(304)          8134.4082         2255.6260                                                                
   421    22.2158    27558(334)         10613.4609         2253.5774                                                                
   422    22.2658    30947(354)         13217.3379         2251.5288                                                                
   423    22.3158    32507(362)         15577.2744         2249.4802                                                                
   424    22.3658    32666(362)         17362.7031         2247.4319                                                                
   425    22.4158    32289(359)         18396.6504         2245.3833                                                                
   426    22.4658    31039(351)         18679.2988         2243.3347                                                                
   427    22.5158    30063(345)         18292.6055         2241.2861                                                                
   428    22.5658    27808(331)         17279.2500         2239.2378                                                                
   429    22.6158    25212(315)         15628.6289         2237.1892                                                                
   430    22.6658    21799(292)         13390.2803         2235.1406                                                                
   431    22.7158    17264(259)         10792.7197         2233.0920                                                                
   432    22.7658    12929(224)          8208.4893         2231.0437                                                                
   433    22.8158    8770(184)          5996.4980         2228.9951                                                                 
   434    22.8658    5927(151)          4361.5952         2226.9465                                                                 
   435    22.9158    4151(126)          3314.2012         2224.8979                                                                 
   436    22.9658    2924(105)          2730.0071         2222.8496                                                                 
   437    23.0158    2575(99)          2444.2053         2220.8010                                                                  
   438    23.0658    2389(95)          2319.7251         2218.7524                                                                  
   439    23.1158    2270(92)          2269.6853         2216.7041                                                                  
   440    23.1658    2363(94)          2249.4189         2214.6553                                                                  
   441    23.2158    2206(91)          2239.7380         2212.6069                                                                  
   442    23.2658    2218(91)          2233.5969         2210.5583                                                                  
   443    23.3158    2316(92)          2228.7263         2208.5098                                                                  
   444    23.3658    2305(92)          2224.4470         2206.4614                                                                  
   445    23.4158    2172(89)          2220.5398         2204.4128                                                                  
   446    23.4658    2257(91)          2216.9121         2202.3643                                                                  
   447    23.5158    2293(91)          2213.5081         2200.3159                                                                  
   448    23.5658    2096(87)          2210.2864         2198.2673                                                                  
   449    23.6158    2145(88)          2207.2158         2196.2188                                                                  
   450    23.6658    2130(87)          2204.2717         2194.1702                                                                  
   451    23.7158    2224(89)          2201.4336         2192.1216                                                                  
   452    23.7658    2174(88)          2198.6860         2190.0732                                                                  
   453    23.8158    2098(86)          2196.0151         2188.0247                                                                  
   454    23.8658    2150(87)          2193.4102         2185.9761                                                                  
   455    23.9158    2197(88)          2190.8621         2183.9275                                                                  
   456    23.9658    2182(87)          2188.3638         2181.8792                                                                  
   457    24.0158    2186(87)          2185.9084         2179.8306                                                                  
   458    24.0658    2111(86)          2183.4907         2177.7820                                                                  
   459    24.1158    2111(86)          2181.1064         2175.7334                                                                  
   460    24.1658    2077(85)          2178.7520         2173.6851                                                                  
   461    24.2158    2252(88)          2176.4231         2171.6365                                                                  
   462    24.2658    2223(87)          2174.1177         2169.5879                                                                  
   463    24.3158    2273(88)          2171.8330         2167.5396                                                                  
   464    24.3658    2177(86)          2169.5667         2165.4910                                                                  
   465    24.4158    2062(84)          2167.3171         2163.4424                                                                  
   466    24.4658    2087(84)          2165.0825         2161.3938                                                                  
   467    24.5158    2108(84)          2162.8618         2159.3455                                                                  
   468    24.5658    2175(85)          2160.6531         2157.2969                                                                  
   469    24.6158    2151(85)          2158.4556         2155.2483                                                                  
   470    24.6658    2232(86)          2156.2683         2153.1997                                                                  
   471    24.7158    2089(83)          2154.0906         2151.1514                                                                  
   472    24.7658    2130(84)          2151.9209         2149.1028                                                                  
   473    24.8158    2126(84)          2149.7593         2147.0542                                                                  
   474    24.8658    2118(83)          2147.6045         2145.0056                                                                  
   475    24.9158    2174(84)          2145.4563         2142.9570                                                                  
   476    24.9658    2158(84)          2143.3145         2140.9087                                                                  
   477    25.0158    2113(83)          2141.1780         2138.8601                                                                  
   478    25.0658    2115(83)          2139.0466         2136.8115                                                                  
   479    25.1158    2203(84)          2136.9204         2134.7632                                                                  
   480    25.1658    2137(83)          2134.7981         2132.7146                                                                  
   481    25.2158    2152(83)          2132.6802         2130.6660                                                                  
   482    25.2658    2096(82)          2130.5662         2128.6177                                                                  
   483    25.3158    2125(82)          2128.4551         2126.5688                                                                  
   484    25.3658    2162(83)          2126.3481         2124.5205                                                                  
   485    25.4158    2198(83)          2124.2437         2122.4719                                                                  
   486    25.4658    2147(82)          2122.1423         2120.4233                                                                  
   487    25.5158    2121(81)          2120.0439         2118.3750                                                                  
   488    25.5658    2167(82)          2117.9478         2116.3264                                                                  
   489    25.6158    2109(81)          2115.8540         2114.2778                                                                  
   490    25.6658    2060(80)          2113.7625         2112.2292                                                                  
   491    25.7158    2100(80)          2111.6731         2110.1807                                                                  
   492    25.7658    2151(81)          2109.5859         2108.1323                                                                  
   493    25.8158    2125(81)          2107.5005         2106.0837                                                                  
   494    25.8658    2092(80)          2105.4167         2104.0352                                                                  
   495    25.9158    2226(82)          2103.3347         2101.9868                                                                  
   496    25.9658    2073(79)          2101.2542         2099.9382                                                                  
   497    26.0158    2189(81)          2099.1753         2097.8896                                                                  
   498    26.0658    2248(82)          2097.0977         2095.8411                                                                  
   499    26.1158    2141(80)          2095.0217         2093.7927                                                                  
   500    26.1658    2157(80)          2092.9465         2091.7441                                                                  
   501    26.2158    2082(79)          2090.8728         2089.6956                                                                  
   502    26.2658    2099(79)          2088.8003         2087.6470                                                                  
   503    26.3158    2166(80)          2086.7290         2085.5986                                                                  
   504    26.3658    2136(79)          2084.6587         2083.5500                                                                  
   505    26.4158    2163(79)          2082.5891         2081.5015                                                                  
   506    26.4658    2168(79)          2080.5210         2079.4531                                                                  
   507    26.5158    2234(80)          2078.6389         2077.5901                                                                  
   508    26.5658    2239(80)          2079.6658         2078.6350                                                                  
   509    26.6158    2213(80)          2080.6936         2079.6799                                                                  
   510    26.6658    2204(80)          2081.7222         2080.7249                                                                  
   511    26.7158    2199(79)          2082.7517         2081.7700                                                                  
   512    26.7658    2132(78)          2083.7817         2082.8149                                                                  
   513    26.8158    2093(77)          2084.8127         2083.8599                                                                  
   514    26.8658    2199(79)          2085.8442         2084.9048                                                                  
   515    26.9158    2178(78)          2086.8765         2085.9497                                                                  
   516    26.9658    2230(79)          2087.9094         2086.9946                                                                  
   517    27.0158    2169(78)          2088.9431         2088.0398                                                                  
   518    27.0658    2088(76)          2089.9773         2089.0847                                                                  
   519    27.1158    2029(75)          2091.0120         2090.1296                                                                  
   520    27.1658    2095(76)          2092.0474         2091.1746                                                                  
   521    27.2158    2088(76)          2093.0835         2092.2195                                                                  
   522    27.2658    2071(75)          2094.1201         2093.2646                                                                  
   523    27.3158    2143(77)          2095.1572         2094.3096                                                                  
   524    27.3658    2208(78)          2096.1951         2095.3545                                                                  
   525    27.4158    2151(76)          2097.2332         2096.3994                                                                  
   526    27.4658    2113(76)          2098.2720         2097.4443                                                                  
   527    27.5158    2190(77)          2099.3113         2098.4893                                                                  
   528    27.5658    2148(76)          2100.3513         2099.5344                                                                  
   529    27.6158    2109(75)          2101.3916         2100.5793                                                                  
   530    27.6658    2176(76)          2102.4324         2101.6243                                                                  
   531    27.7158    2130(75)          2103.4736         2102.6692                                                                  
   532    27.7658    2121(75)          2104.5156         2103.7141                                                                  
   533    27.8158    2063(74)          2105.5583         2104.7593                                                                  
   534    27.8658    2091(74)          2106.6011         2105.8042                                                                  
   535    27.9158    2091(74)          2107.6445         2106.8491                                                                  
   536    27.9658    2071(74)          2108.6885         2107.8940                                                                  
   537    28.0158    2104(74)          2109.7332         2108.9390                                                                  
   538    28.0658    2146(75)          2110.7783         2109.9841                                                                  
   539    28.1158    2088(73)          2111.8240         2111.0291                                                                  
   540    28.1658    2070(73)          2112.8701         2112.0740                                                                  
   541    28.2158    2073(73)          2113.9167         2113.1189                                                                  
   542    28.2658    2094(73)          2115.1143         2114.1638                                                                  
   543    28.3158    2158(74)          2116.1633         2115.2090                                                                  
   544    28.3658    2195(75)          2117.2126         2116.2539                                                                  
   545    28.4158    2109(73)          2118.2627         2117.2988                                                                  
   546    28.4658    2143(74)          2119.3132         2118.3438                                                                  
   547    28.5158    2016(71)          2120.3645         2119.3887                                                                  
   548    28.5658    2052(72)          2121.4170         2120.4338                                                                  
   549    28.6158    2036(71)          2122.4697         2121.4788                                                                  
   550    28.6658    1992(70)          2123.5232         2122.5237                                                                  
   551    28.7158    2078(72)          2124.5774         2123.5686                                                                  
   552    28.7658    2173(73)          2125.6326         2124.6135                                                                  
   553    28.8158    2025(71)          2126.6887         2125.6587                                                                  
   554    28.8658    2097(72)          2127.7456         2126.7036                                                                  
   555    28.9158    2080(71)          2128.8035         2127.7485                                                                  
   556    28.9658    2025(70)          2129.8623         2128.7935                                                                  
   557    29.0158    2071(71)          2131.0432         2129.8384                                                                  
   558    29.0658    2050(70)          2132.1057         2130.8835                                                                  
   559    29.1158    2118(71)          2133.1692         2131.9285                                                                  
   560    29.1658    2136(72)          2134.2336         2132.9734                                                                  
   561    29.2158    2158(72)          2135.2998         2134.0183                                                                  
   562    29.2658    2039(70)          2136.3672         2135.0632                                                                  
   563    29.3158    2137(71)          2137.4363         2136.1082                                                                  
   564    29.3658    2153(71)          2138.5071         2137.1533                                                                  
   565    29.4158    2058(70)          2139.5796         2138.1982                                                                  
   566    29.4658    2058(70)          2140.6538         2139.2432                                                                  
   567    29.5158    2052(69)          2141.7302         2140.2881                                                                  
   568    29.5658    2171(71)          2142.9419         2141.3330                                                                  
   569    29.6158    2065(69)          2144.0244         2142.3782                                                                  
   570    29.6658    2118(70)          2145.1091         2143.4231                                                                  
   571    29.7158    2126(70)          2146.1968         2144.4680                                                                  
   572    29.7658    2125(70)          2147.2874         2145.5129                                                                  
   573    29.8158    2120(70)          2148.3813         2146.5579                                                                  
   574    29.8658    2013(68)          2149.4792         2147.6030                                                                  
   575    29.9158    2070(69)          2150.5806         2148.6479                                                                  
   576    29.9658    2042(68)          2151.6865         2149.6929                                                                  
   577    30.0158    2128(69)          2152.7971         2150.7378                                                                  
   578    30.0658    2107(69)          2153.9128         2151.7827                                                                  
   579    30.1158    2094(69)          2155.0344         2152.8276                                                                  
   580    30.1658    1973(66)          2156.1626         2153.8728                                                                  
   581    30.2158    2105(69)          2157.2979         2154.9177                                                                  
   582    30.2658    2099(68)          2158.4409         2155.9626                                                                  
   583    30.3158    2015(67)          2159.5928         2157.0076                                                                  
   584    30.3658    2016(67)          2160.7546         2158.0525                                                                  
   585    30.4158    2127(68)          2161.9282         2159.0977                                                                  
   586    30.4658    2072(67)          2163.1140         2160.1426                                                                  
   587    30.5158    2043(67)          2164.3145         2161.1875                                                                  
   588    30.5658    1991(66)          2165.5315         2162.2324                                                                  
   589    30.6158    2037(67)          2166.7671         2163.2773                                                                  
   590    30.6658    1985(66)          2168.0251         2164.3225                                                                  
   591    30.7158    2016(66)          2169.3079         2165.3674                                                                  
   592    30.7658    2106(67)          2170.6201         2166.4124                                                                  
   593    30.8158    2074(67)          2171.9668         2167.4573                                                                  
   594    30.8658    2038(66)          2173.3542         2168.5022                                                                  
   595    30.9158    2139(67)          2174.7903         2169.5474                                                                  
   596    30.9658    2151(68)          2176.2837         2170.5923                                                                  
   597    31.0158    2056(66)          2177.8472         2171.6372                                                                  
   598    31.0658    2087(66)          2179.4958         2172.6821                                                                  
   599    31.1158    2194(68)          2181.2505         2173.7271                                                                  
   600    31.1658    2125(67)          2183.1428         2174.7722                                                                  
   601    31.2158    2132(67)          2185.2344         2175.8171                                                                  
   602    31.2658    2173(67)          2187.6919         2176.8621                                                                  
   603    31.3158    2246(68)          2191.0276         2177.9070                                                                  
   604    31.3658    2402(70)          2196.7891         2178.9519                                                                  
   605    31.4158    2672(74)          2209.1890         2179.9971                                                                  
   606    31.4658    3025(79)          2238.2212         2181.0420                                                                  
   607    31.5158    3622(86)          2304.1157         2182.0869                                                                  
   608    31.5658    4639(97)          2441.0298         2183.1318                                                                  
   609    31.6158    5513(106)          2695.2546         2184.1768                                                                 
   610    31.6658    6556(116)          3112.8911         2185.2217                                                                 
   611    31.7158    7896(127)          3716.6064         2186.2668                                                                 
   612    31.7658    9200(137)          4480.9883         2187.3118                                                                 
   613    31.8158    10696(147)          5321.4863         2188.3567                                                                
   614    31.8658    11982(155)          6108.5059         2189.4016                                                                
   615    31.9158    12717(160)          6705.6543         2190.4465                                                                
   616    31.9658    12351(157)          7008.7158         2191.4917                                                                
   617    32.0158    11642(152)          6963.3833         2192.5366                                                                
   618    32.0658    10362(143)          6573.6641         2193.5815                                                                
   619    32.1158    8589(130)          5910.6782         2194.6265                                                                 
   620    32.1658    6777(116)          5099.6479         2195.6714                                                                 
   621    32.2158    5192(101)          4280.4902         2196.7163                                                                 
   622    32.2658    4053(89)          3567.2280         2197.7615                                                                  
   623    32.3158    3134(78)          3022.4893         2198.8064                                                                  
   624    32.3658    2598(71)          2654.4771         2199.8513                                                                  
   625    32.4158    2338(67)          2433.4250         2200.8962                                                                  
   626    32.4658    2236(66)          2314.7986         2201.9412                                                                  
   627    32.5158    2096(63)          2257.5862         2202.9863                                                                  
   628    32.5658    2044(62)          2232.6726         2204.0312                                                                  
   629    32.6158    2157(64)          2222.7434         2205.0762                                                                  
   630    32.6658    2081(63)          2219.0764         2206.1211                                                                  
   631    32.7158    2004(61)          2217.8284         2207.1660                                                                  
   632    32.7658    2002(61)          2217.4980         2208.2112                                                                  
   633    32.8158    2021(62)          2217.5503         2209.2561                                                                  
   634    32.8658    1958(60)          2217.8022         2210.3010                                                                  
   635    32.9158    2033(62)          2218.1860         2211.3459                                                                  
   636    32.9658    2119(63)          2218.6692         2212.3909                                                                  
   637    33.0158    2059(62)          2219.2327         2213.4360                                                                  
   638    33.0658    2116(62)          2219.8618         2214.4810                                                                  
   639    33.1158    2014(61)          2220.5454         2215.5259                                                                  
   640    33.1658    2037(61)          2221.2749         2216.5708                                                                  
   641    33.2158    2089(62)          2222.0432         2217.6157                                                                  
   642    33.2658    2104(62)          2222.8445         2218.6606                                                                  
   643    33.3158    2098(62)          2223.6743         2219.7058                                                                  
   644    33.3658    2099(62)          2224.5283         2220.7507                                                                  
   645    33.4158    2066(61)          2225.4036         2221.7957                                                                  
   646    33.4658    2106(61)          2226.2971         2222.8406                                                                  
   647    33.5158    2044(60)          2227.2065         2223.8855                                                                  
   648    33.5658    1969(59)          2228.1309         2224.9307                                                                  
   649    33.6158    2018(60)          2229.0671         2225.9756                                                                  
   650    33.6658    1996(59)          2230.0146         2227.0205                                                                  
   651    33.7158    2147(62)          2230.9722         2228.0654                                                                  
   652    33.7658    2120(61)          2231.9387         2229.1104                                                                  
   653    33.8158    2157(62)          2232.9131         2230.1553                                                                  
   654    33.8658    2083(60)          2233.8950         2231.2004                                                                  
   655    33.9158    2048(60)          2234.8833         2232.2454                                                                  
   656    33.9658    2058(60)          2235.8774         2233.2903                                                                  
   657    34.0158    2097(60)          2236.8772         2234.3352                                                                  
   658    34.0658    2041(59)          2237.8818         2235.3801                                                                  
   659    34.1158    2137(61)          2238.8914         2236.4253                                                                  
   660    34.1658    2168(61)          2239.9050         2237.4702                                                                  
   661    34.2158    2094(60)          2240.9226         2238.5151                                                                  
   662    34.2658    2079(59)          2241.8755         2239.5601                                                                  
   663    34.3158    2028(59)          2242.9006         2240.6050                                                                  
   664    34.3658    2036(59)          2243.9292         2241.6501                                                                  
   665    34.4158    2140(60)          2244.9607         2242.6951                                                                  
   666    34.4658    2106(59)          2245.9951         2243.7400                                                                  
   667    34.5158    2090(59)          2247.0320         2244.7849                                                                  
   668    34.5658    2142(60)          2248.0715         2245.8298                                                                  
   669    34.6158    2075(59)          2249.1140         2246.8750                                                                  
   670    34.6658    2046(58)          2250.1584         2247.9199                                                                  
   671    34.7158    2136(59)          2251.2051         2248.9648                                                                  
   672    34.7658    2119(59)          2252.2539         2250.0098                                                                  
   673    34.8158    2131(59)          2252.4221         2250.1716                                                                  
   674    34.8658    2200(60)          2251.6736         2249.3765                                                                  
   675    34.9158    2154(59)          2250.8889         2248.5813                                                                  
   676    34.9658    2091(58)          2250.1064         2247.7861                                                                  
   677    35.0158    2046(58)          2249.3262         2246.9912                                                                  
   678    35.0658    2065(58)          2248.5476         2246.1960                                                                  
   679    35.1158    2206(60)          2247.7710         2245.4009                                                                  
   680    35.1658    2201(59)          2246.9963         2244.6057                                                                  
   681    35.2158    2171(59)          2246.2236         2243.8105                                                                  
   682    35.2658    2097(58)          2245.4531         2243.0154                                                                  
   683    35.3158    2126(58)          2244.6846         2242.2205                                                                  
   684    35.3658    2139(58)          2243.9182         2241.4253                                                                  
   685    35.4158    2129(58)          2243.1536         2240.6301                                                                  
   686    35.4658    2182(59)          2242.3911         2239.8350                                                                  
   687    35.5158    2158(58)          2241.6309         2239.0398                                                                  
   688    35.5658    2084(57)          2240.8730         2238.2449                                                                  
   689    35.6158    2100(57)          2240.1174         2237.4497                                                                  
   690    35.6658    2092(57)          2239.5713         2236.6545                                                                  
   691    35.7158    2149(58)          2238.8223         2235.8594                                                                  
   692    35.7658    2212(58)          2238.0757         2235.0642                                                                  
   693    35.8158    2117(57)          2237.3318         2234.2690                                                                  
   694    35.8658    2211(58)          2236.5906         2233.4739                                                                  
   695    35.9158    2215(58)          2235.8525         2232.6790                                                                  
   696    35.9658    2232(58)          2235.1172         2231.8838                                                                  
   697    36.0158    2224(58)          2234.3850         2231.0886                                                                  
   698    36.0658    2220(58)          2233.6558         2230.2935                                                                  
   699    36.1158    2167(57)          2232.9302         2229.4983                                                                  
   700    36.1658    2228(58)          2232.2085         2228.7034                                                                  
   701    36.2158    2219(58)          2231.4902         2227.9082                                                                  
   702    36.2658    2165(57)          2230.7759         2227.1130                                                                  
   703    36.3158    2147(57)          2230.0657         2226.3179                                                                  
   704    36.3658    2153(57)          2229.3601         2225.5227                                                                  
   705    36.4158    2251(58)          2228.6592         2224.7278                                                                  
   706    36.4658    2291(58)          2227.9631         2223.9326                                                                  
   707    36.5158    2356(59)          2227.2725         2223.1375                                                                  
   708    36.5658    2443(60)          2226.5874         2222.3423                                                                  
   709    36.6158    2438(60)          2225.9084         2221.5471                                                                  
   710    36.6658    2569(61)          2225.2358         2220.7520                                                                  
   711    36.7158    2698(63)          2224.5703         2219.9570                                                                  
   712    36.7658    2627(62)          2223.9119         2219.1619                                                                  
   713    36.8158    2650(62)          2223.2612         2218.3667                                                                  
   714    36.8658    2470(60)          2222.6191         2217.5715                                                                  
   715    36.9158    2428(59)          2221.9863         2216.7764                                                                  
   716    36.9658    2302(57)          2221.3848         2215.9814                                                                  
   717    37.0158    2246(57)          2220.7727         2215.1863                                                                  
   718    37.0658    2119(55)          2220.1719         2214.3911                                                                  
   719    37.1158    2189(56)          2219.5835         2213.5959                                                                  
   720    37.1658    2144(55)          2219.0088         2212.8008                                                                  
   721    37.2158    2110(54)          2218.4490         2212.0059                                                                  
   722    37.2658    2103(54)          2217.9050         2211.2107                                                                  
   723    37.3158    2133(55)          2217.4041         2210.4155                                                                  
   724    37.3658    2100(54)          2216.8970         2209.6204                                                                  
   725    37.4158    2171(55)          2216.4111         2208.8252                                                                  
   726    37.4658    2158(55)          2215.9485         2208.0300                                                                  
   727    37.5158    2139(54)          2215.5117         2207.2351                                                                  
   728    37.5658    2279(56)          2215.1030         2206.4399                                                                  
   729    37.6158    2334(57)          2214.7258         2205.6448                                                                  
   730    37.6658    2542(59)          2214.3835         2204.8496                                                                  
   731    37.7158    2579(59)          2214.0801         2204.0544                                                                  
   732    37.7658    2766(61)          2213.8206         2203.2595                                                                  
   733    37.8158    3006(64)          2213.6094         2202.4644                                                                  
   734    37.8658    2994(64)          2213.4534         2201.6692                                                                  
   735    37.9158    3068(64)          2213.3596         2200.8740                                                                  
   736    37.9658    3186(65)          2213.3364         2200.0789                                                                  
   737    38.0158    3145(65)          2213.3936         2199.2837                                                                  
   738    38.0658    2939(63)          2213.5430         2198.4888                                                                  
   739    38.1158    2864(62)          2213.7981         2197.6936                                                                  
   740    38.1658    2656(59)          2214.1750         2196.8984                                                                  
   741    38.2158    2524(58)          2214.6941         2196.1033                                                                  
   742    38.2658    2472(57)          2215.3792         2195.3081                                                                  
   743    38.3158    2368(56)          2216.2590         2194.5132                                                                  
   744    38.3658    2417(56)          2217.3696         2193.7180                                                                  
   745    38.4158    2367(56)          2218.7546         2192.9229                                                                  
   746    38.4658    2322(55)          2220.4700         2192.1277                                                                  
   747    38.5158    2313(55)          2222.5847         2191.3325                                                                  
   748    38.5658    2285(54)          2225.1885         2190.5376                                                                  
   749    38.6158    2273(54)          2228.3979         2189.7424                                                                  
   750    38.6658    2331(55)          2232.3750         2188.9473                                                                  
   751    38.7158    2281(54)          2237.3855         2188.1521                                                                  
   752    38.7658    2323(54)          2244.0000         2187.3569                                                                  
   753    38.8158    2354(55)          2253.8062         2186.5618                                                                  
   754    38.8658    2552(57)          2271.6287         2185.7666                                                                  
   755    38.9158    3028(62)          2311.5254         2184.9717                                                                  
   756    38.9658    3949(71)          2410.4028         2184.1765                                                                  
   757    39.0158    6042(87)          2652.8313         2183.3813                                                                  
   758    39.0658    9539(110)          3203.9514         2182.5862                                                                 
   759    39.1158    15124(138)          4329.9375         2181.7910                                                                
   760    39.1658    22375(168)          6362.0601         2180.9961                                                                
   761    39.2158    30046(194)          9560.2354         2180.2009                                                                
   762    39.2658    37244(216)         13881.9727         2179.4058                                                                
   763    39.3158    42289(230)         18770.0410         2178.6106                                                                
   764    39.3658    43291(232)         23144.6289         2177.8154                                                                
   765    39.4158    41430(227)         25723.4180         2177.0205                                                                
   766    39.4658    36904(213)         25613.3496         2176.2253                                                                
   767    39.5158    29617(191)         22840.1465         2175.4302                                                                
   768    39.5658    21824(164)         18340.4922         2174.6350                                                                
   769    39.6158    14922(135)         13415.5049         2173.8398                                                                
   770    39.6658    9848(109)          9137.6064         2173.0447                                                                 
   771    39.7158    6153(86)          6032.8589         2172.2498                                                                  
   772    39.7658    4115(70)          4105.7866         2171.4546                                                                  
   773    39.8158    2952(59)          3067.9089         2170.6594                                                                  
   774    39.8658    2472(54)          2576.1958         2169.8643                                                                  
   775    39.9158    2309(52)          2366.9968         2169.0691                                                                  
   776    39.9658    2238(51)          2283.4917         2168.2742                                                                  
   777    40.0158    2127(50)          2249.1965         2167.4790                                                                  
   778    40.0658    2091(49)          2232.5210         2166.6838                                                                  
   779    40.1158    2063(49)          2222.1262         2165.8887                                                                  
   780    40.1658    2175(50)          2214.3318         2165.0935                                                                  
   781    40.2158    2125(50)          2207.9543         2164.2983                                                                  
   782    40.2658    2134(50)          2202.5481         2163.5034                                                                  
   783    40.3158    2132(50)          2197.8835         2162.7083                                                                  
   784    40.3658    2186(50)          2193.8091         2161.9131                                                                  
   785    40.4158    2082(49)          2190.2129         2161.1179                                                                  
   786    40.4658    2154(50)          2187.0085         2160.3228                                                                  
   787    40.5158    2155(50)          2184.1282         2159.5278                                                                  
   788    40.5658    2157(49)          2181.5178         2158.7327                                                                  
   789    40.6158    2117(49)          2179.2131         2157.9375                                                                  
   790    40.6658    2132(49)          2177.0229         2157.1423                                                                  
   791    40.7158    2103(49)          2174.9966         2156.3472                                                                  
   792    40.7658    2165(49)          2173.1113         2155.5522                                                                  
   793    40.8158    2072(48)          2171.3469         2154.7571                                                                  
   794    40.8658    2064(48)          2169.6880         2153.9619                                                                  
   795    40.9158    2100(48)          2168.1211         2153.1667                                                                  
   796    40.9658    2121(48)          2166.6348         2152.3716                                                                  
   797    41.0158    2110(48)          2165.2195         2151.5764                                                                  
   798    41.0658    2158(49)          2163.8672         2150.7815                                                                  
   799    41.1158    2110(48)          2162.5708         2149.9863                                                                  
   800    41.1658    2118(48)          2161.3245         2149.1912                                                                  
   801    41.2158    2157(48)          2160.1228         2148.3960                                                                  
   802    41.2658    2082(48)          2158.9617         2147.6008                                                                  
   803    41.3158    2095(48)          2157.8374         2146.8059                                                                  
   804    41.3658    2033(47)          2156.7461         2146.0107                                                                  
   805    41.4158    2114(48)          2155.6851         2145.2156                                                                  
   806    41.4658    2015(46)          2154.6516         2144.4204                                                                  
   807    41.5158    2056(47)          2153.6438         2143.6252                                                                  
   808    41.5658    2084(47)          2152.6599         2142.8303                                                                  
   809    41.6158    2015(46)          2151.6975         2142.0352                                                                  
   810    41.6658    2084(47)          2150.7556         2141.2400                                                                  
   811    41.7158    2100(47)          2149.8237         2140.4448                                                                  
   812    41.7658    2044(46)          2148.9189         2139.6497                                                                  
   813    41.8158    2089(47)          2148.0308         2138.8545                                                                  
   814    41.8658    2062(46)          2147.1511         2138.0593                                                                  
   815    41.9158    2129(47)          2146.2947         2137.2644                                                                  
   816    41.9658    2093(47)          2145.4526         2136.4692                                                                  
   817    42.0158    2125(47)          2144.6248         2135.6741                                                                  
   818    42.0658    2066(46)          2143.8105         2134.8789                                                                  
   819    42.1158    2100(46)          2143.0095         2134.0837                                                                  
   820    42.1658    2138(47)          2142.2217         2133.2888                                                                  
   821    42.2158    2189(47)          2141.4460         2132.4937                                                                  
   822    42.2658    2139(47)          2140.6833         2131.6985                                                                  
   823    42.3158    2302(48)          2139.9329         2130.9033                                                                  
   824    42.3658    2342(49)          2139.1946         2130.1082                                                                  
   825    42.4158    2333(49)          2138.4880         2129.3130                                                                  
   826    42.4658    2233(47)          2137.7754         2128.5181                                                                  
   827    42.5158    2245(47)          2137.0750         2127.7229                                                                  
   828    42.5658    2205(47)          2136.3872         2126.9277                                                                  
   829    42.6158    2119(46)          2135.7126         2126.1326                                                                  
   830    42.6658    2152(46)          2135.0518         2125.3374                                                                  
   831    42.7158    2150(46)          2134.4045         2124.5425                                                                  
   832    42.7658    2004(44)          2133.7715         2123.7473                                                                  
   833    42.8158    2078(45)          2133.1533         2122.9521                                                                  
   834    42.8658    2096(45)          2132.5505         2122.1570                                                                  
   835    42.9158    2082(45)          2131.9636         2121.3618                                                                  
   836    42.9658    2054(45)          2131.3940         2120.5669                                                                  
   837    43.0158    1960(44)          2130.8533         2119.7717                                                                  
   838    43.0658    1991(44)          2130.3198         2118.9766                                                                  
   839    43.1158    2038(45)          2129.8062         2118.1814                                                                  
   840    43.1658    2048(45)          2129.2852         2117.3862                                                                  
   841    43.2158    2009(44)          2128.8149         2116.5911                                                                  
   842    43.2658    2093(45)          2128.3691         2115.7961                                                                  
   843    43.3158    2079(45)          2127.9482         2115.0010                                                                  
   844    43.3658    2105(45)          2127.5547         2114.2058                                                                  
   845    43.4158    2105(45)          2127.1907         2113.4106                                                                  
   846    43.4658    2069(45)          2126.8582         2112.6155                                                                  
   847    43.5158    2145(46)          2126.5603         2111.8206                                                                  
   848    43.5658    2127(46)          2126.2991         2111.0254                                                                  
   849    43.6158    2089(45)          2126.0781         2110.2302                                                                  
   850    43.6658    2118(46)          2125.9011         2109.4351                                                                  
   851    43.7158    2107(45)          2125.7717         2108.6399                                                                  
   852    43.7658    2079(45)          2125.6948         2107.8447                                                                  
   853    43.8158    2098(45)          2125.6755         2107.0498                                                                  
   854    43.8658    2170(46)          2125.7192         2106.2546                                                                  
   855    43.9158    2155(46)          2125.8323         2105.4595                                                                  
   856    43.9658    2218(47)          2126.0227         2104.6643                                                                  
   857    44.0158    2204(46)          2126.2986         2103.8691                                                                  
   858    44.0658    2192(46)          2126.6699         2103.0742                                                                  
   859    44.1158    2248(47)          2127.1472         2102.2791                                                                  
   860    44.1658    2285(47)          2127.7437         2101.4839                                                                  
   861    44.2158    2298(47)          2128.4741         2100.6887                                                                  
   862    44.2658    2246(47)          2129.3560         2099.8936                                                                  
   863    44.3158    2304(48)          2130.4111         2099.0986                                                                  
   864    44.3658    2304(48)          2131.6658         2098.3035                                                                  
   865    44.4158    2305(48)          2133.1631         2097.5083                                                                  
   866    44.4658    2344(48)          2134.9492         2096.7131                                                                  
   867    44.5158    2402(49)          2137.1301         2095.9180                                                                  
   868    44.5658    2266(47)          2139.8967         2095.1230                                                                  
   869    44.6158    2318(48)          2143.6294         2094.3276                                                                  
   870    44.6658    2404(49)          2149.0903         2093.5327                                                                  
   871    44.7158    2425(49)          2157.7747         2092.7375                                                                  
   872    44.7658    2526(50)          2172.5190         2091.9424                                                                  
   873    44.8158    2695(51)          2198.4751         2091.1472                                                                  
   874    44.8658    2933(54)          2244.5508         2090.3521                                                                  
   875    44.9158    3376(58)          2325.3259         2089.5571                                                                  
   876    44.9658    4269(65)          2463.3413         2088.7620                                                                  
   877    45.0158    5630(75)          2691.2734         2087.9668                                                                  
   878    45.0658    7909(88)          3053.2434         2087.1716                                                                  
   879    45.1158    11126(105)          3604.1541         2086.3765                                                                
   880    45.1658    15123(122)          4405.4941         2085.5815                                                                
   881    45.2158    20267(142)          5517.2578         2084.7864                                                                
   882    45.2658    25324(159)          6985.0142         2083.9912                                                                
   883    45.3158    29954(173)          8824.0322         2083.1960                                                                
   884    45.3658    33462(182)         11003.3965         2082.4009                                                                
   885    45.4158    35774(189)         13433.5225         2081.6057                                                                
   886    45.4658    36872(192)         15964.3887         2080.8108                                                                
   887    45.5158    37466(193)         18394.5508         2080.0156                                                                
   888    45.5658    36966(192)         20494.5117         2079.2205                                                                
   889    45.6158    35895(189)         22041.9590         2078.4253                                                                
   890    45.6658    34944(186)         22865.0254         2077.6301                                                                
   891    45.7158    33427(182)         22889.6055         2076.8352                                                                
   892    45.7658    31261(176)         22178.5547         2076.0400                                                                
   893    45.8158    28028(167)         20951.5547         2075.2449                                                                
   894    45.8658    25392(159)         19572.4453         2074.4497                                                                
   895    45.9158    23643(153)         18489.3301         2073.6545                                                                
   896    45.9658    23062(151)         18110.3164         2072.8594                                                                
   897    46.0158    24566(156)         18628.7910         2072.0645                                                                
   898    46.0658    27913(167)         19865.6562         2071.2693                                                                
   899    46.1158    32276(179)         21238.6230         2070.4741                                                                
   900    46.1658    35572(188)         21933.5137         2069.6790                                                                
   901    46.2158    36652(191)         21259.0508         2068.8838                                                                
   902    46.2658    34758(186)         19029.6562         2068.0889                                                                
   903    46.3158    29946(173)         15668.6670         2067.2937                                                                
   904    46.3658    23365(152)         11932.4004         2066.4985                                                                
   905    46.4158    16856(129)          8538.0449         2065.7034                                                                
   906    46.4658    11172(105)          5916.6260         2064.9082                                                                
   907    46.5158    7117(84)          4162.0215         2064.1133                                                                  
   908    46.5658    4516(67)          3131.1316         2063.3181                                                                  
   909    46.6158    3160(56)          2593.0798         2062.5229                                                                  
   910    46.6658    2639(51)          2339.4185         2061.7278                                                                  
   911    46.7158    2351(48)          2227.8479         2060.9326                                                                  
   912    46.7658    2259(47)          2178.9956         2060.1377                                                                  
   913    46.8158    2216(47)          2155.2803         2059.3425                                                                  
   914    46.8658    2108(45)          2141.2178         2058.5474                                                                  
   915    46.9158    2096(45)          2131.0967         2057.7522                                                                  
   916    46.9658    2089(45)          2122.9270         2056.9570                                                                  
   917    47.0158    2077(45)          2115.9829         2056.1619                                                                  
   918    47.0658    2070(45)          2109.9426         2055.3669                                                                  
   919    47.1158    2021(44)          2104.6187         2054.5718                                                                  
   920    47.1658    2149(46)          2099.8813         2053.7766                                                                  
   921    47.2158    2073(45)          2095.6316         2052.9814                                                                  
   922    47.2658    2004(44)          2091.7913         2052.1863                                                                  
   923    47.3158    2152(46)          2088.2979         2051.3914                                                                  
   924    47.3658    2173(46)          2085.1001         2050.5962                                                                  
   925    47.4158    2134(46)          2082.1570         2049.8010                                                                  
   926    47.4658    2050(45)          2079.4338         2049.0059                                                                  
   927    47.5158    2107(45)          2076.9019         2048.2107                                                                  
   928    47.5658    2049(45)          2074.5376         2047.4156                                                                  
   929    47.6158    2066(45)          2072.3201         2046.6205                                                                  
   930    47.6658    2052(45)          2070.2327         2045.8253                                                                  
   931    47.7158    2097(45)          2068.2607         2045.0303                                                                  
   932    47.7658    2108(45)          2066.3914         2044.2351                                                                  
   933    47.8158    2100(45)          2064.6140         2043.4401                                                                  
   934    47.8658    2061(45)          2062.9189         2042.6449                                                                  
   935    47.9158    2086(45)          2061.2986         2041.8497                                                                  
   936    47.9658    2032(45)          2059.7456         2041.0547                                                                  
   937    48.0158    2001(44)          2058.2537         2040.2595                                                                  
   938    48.0658    2038(45)          2056.8179         2039.4645                                                                  
   939    48.1158    2106(45)          2055.4326         2038.6692                                                                  
   940    48.1658    2068(45)          2054.0947         2037.8741                                                                  
   941    48.2158    2008(44)          2052.7998         2037.0791                                                                  
   942    48.2658    2075(45)          2051.5447         2036.2839                                                                  
   943    48.3158    2054(45)          2050.3267         2035.4888                                                                  
   944    48.3658    2091(45)          2049.1431         2034.6936                                                                  
   945    48.4158    2077(45)          2047.9921         2033.8986                                                                  
   946    48.4658    2045(45)          2046.8712         2033.1034                                                                  
   947    48.5158    2067(45)          2045.7789         2032.3083                                                                  
   948    48.5658    2040(45)          2044.7136         2031.5132                                                                  
   949    48.6158    1964(44)          2043.6740         2030.7180                                                                  
   950    48.6658    2022(44)          2042.6591         2029.9230                                                                  
   951    48.7158    1976(44)          2041.6676         2029.1278                                                                  
   952    48.7658    2008(44)          2040.6991         2028.3328                                                                  
   953    48.8158    2013(44)          2039.7524         2027.5376                                                                  
   954    48.8658    2120(46)          2038.8273         2026.7424                                                                  
   955    48.9158    2036(45)          2037.9233         2025.9473                                                                  
   956    48.9658    1987(44)          2037.0403         2025.1522                                                                  
   957    49.0158    2049(45)          2036.1779         2024.3571                                                                  
   958    49.0658    2034(45)          2035.3361         2023.5620                                                                  
   959    49.1158    1958(44)          2034.5150         2022.7668                                                                  
   960    49.1658    1932(43)          2033.7148         2021.9717                                                                  
   961    49.2158    1959(44)          2033.6578         2021.8982                                                                  
   962    49.2658    1937(44)          2034.2936         2022.4906                                                                  
   963    49.3158    2034(45)          2034.9469         2023.0830                                                                  
   964    49.3658    2087(45)          2035.6237         2023.6755                                                                  
   965    49.4158    2064(45)          2036.1936         2024.2679                                                                  
   966    49.4658    2024(44)          2036.9215         2024.8604                                                                  
   967    49.5158    1959(44)          2037.6765         2025.4528                                                                  
   968    49.5658    2008(44)          2038.4603         2026.0453                                                                  
   969    49.6158    2000(44)          2039.2748         2026.6377                                                                  
   970    49.6658    2052(45)          2040.1223         2027.2302                                                                  
   971    49.7158    2030(45)          2041.0055         2027.8226                                                                  
   972    49.7658    2041(45)          2041.9272         2028.4150                                                                  
   973    49.8158    1969(44)          2042.8912         2029.0074                                                                  
   974    49.8658    1961(44)          2043.7816         2029.6000                                                                  
   975    49.9158    1982(44)          2044.8442         2030.1924                                                                  
   976    49.9658    1935(43)          2045.9635         2030.7848                                                                  
   977    50.0158    1999(44)          2047.1460         2031.3772                                                                  
   978    50.0658    2033(45)          2048.3992         2031.9697                                                                  
   979    50.1158    2021(44)          2049.7317         2032.5621                                                                  
   980    50.1658    2005(44)          2051.1543         2033.1545                                                                  
   981    50.2158    2021(44)          2052.6797         2033.7471                                                                  
   982    50.2658    2025(45)          2054.3223         2034.3395                                                                  
   983    50.3158    2019(44)          2056.1018         2034.9319                                                                  
   984    50.3658    2044(45)          2058.0437         2035.5244                                                                  
   985    50.4158    2019(44)          2060.1860         2036.1168                                                                  
   986    50.4658    2050(45)          2062.5955         2036.7092                                                                  
   987    50.5158    2053(45)          2065.3997         2037.3016                                                                  
   988    50.5658    2067(45)          2068.8672         2037.8942                                                                  
   989    50.6158    2078(45)          2073.5696         2038.4866                                                                  
   990    50.6658    2196(46)          2080.7014         2039.0790                                                                  
   991    50.7158    2267(47)          2092.6663         2039.6715                                                                  
   992    50.7658    2587(50)          2114.0381         2040.2639                                                                  
   993    50.8158    3216(56)          2153.2610         2040.8563                                                                  
   994    50.8658    3894(62)          2223.3442         2041.4489                                                                  
   995    50.9158    4850(69)          2345.2927         2042.0413                                                                  
   996    50.9658    6066(77)          2547.9819         2042.6337                                                                  
   997    51.0158    7673(87)          2867.2856         2043.2261                                                                  
   998    51.0658    9580(97)          3341.5273         2043.8186                                                                  
   999    51.1158    11426(106)          4002.8354         2044.4110                                                                
  1000    51.1658    13142(114)          4864.8008         2045.0034                                                                
  1001    51.2158    14700(121)          5910.0288         2045.5959                                                                
  1002    51.2658    15814(125)          7081.1450         2046.1884                                                                
  1003    51.3158    16432(128)          8280.9551         2046.7808                                                                
  1004    51.3658    16737(129)          9385.0332         2047.3733                                                                
  1005    51.4158    16498(128)         10266.7520         2047.9657                                                                
  1006    51.4658    16077(126)         10832.3613         2048.5581                                                                
  1007    51.5158    15491(124)         11054.2285         2049.1506                                                                
  1008    51.5658    14968(122)         10987.7891         2049.7429                                                                
  1009    51.6158    14482(120)         10759.3438         2050.3354                                                                
  1010    51.6658    14606(120)         10523.6689         2050.9280                                                                
  1011    51.7158    15086(122)         10401.4375         2051.5203                                                                
  1012    51.7658    15825(125)         10419.9219         2052.1128                                                                
  1013    51.8158    16539(128)         10487.0693         2052.7051                                                                
  1014    51.8658    16695(129)         10419.5732         2053.2976                                                                
  1015    51.9158    16401(128)         10023.4023         2053.8901                                                                
  1016    51.9658    15082(122)          9199.8516         2054.4824                                                                
  1017    52.0158    12725(112)          8009.8467         2055.0750                                                                
  1018    52.0658    10293(101)          6638.9072         2055.6675                                                                
  1019    52.1158    7794(88)          5304.8018         2056.2598                                                                  
  1020    52.1658    5663(75)          4177.1631         2056.8523                                                                  
  1021    52.2158    4121(64)          3336.4761         2057.4448                                                                  
  1022    52.2658    3095(55)          2778.2554         2058.0371                                                                  
  1023    52.3158    2588(50)          2445.4224         2058.6296                                                                  
  1024    52.3658    2355(48)          2265.5701         2059.2222                                                                  
  1025    52.4158    2126(46)          2176.2820         2059.8145                                                                  
  1026    52.4658    2043(45)          2134.5164         2060.4070                                                                  
  1027    52.5158    2097(45)          2115.2327         2060.9995                                                                  
  1028    52.5658    2081(45)          2105.7617         2061.5918                                                                  
  1029    52.6158    2063(45)          2100.4119         2062.1843                                                                  
  1030    52.6658    2035(45)          2096.8582         2062.7769                                                                  
  1031    52.7158    2068(45)          2094.2021         2063.3691                                                                  
  1032    52.7658    2021(44)          2092.0928         2063.9617                                                                  
  1033    52.8158    1992(44)          2090.3740         2064.5540                                                                  
  1034    52.8658    2018(44)          2088.9619         2065.1465                                                                  
  1035    52.9158    2065(45)          2087.8008         2065.7390                                                                  
  1036    52.9658    1986(44)          2086.8484         2066.3313                                                                  
  1037    53.0158    2052(45)          2086.0730         2066.9238                                                                  
  1038    53.0658    2069(45)          2085.4485         2067.5164                                                                  
  1039    53.1158    1968(44)          2084.9529         2068.1086                                                                  
  1040    53.1658    2034(45)          2084.5691         2068.7012                                                                  
  1041    53.2158    2012(44)          2084.2825         2069.2937                                                                  
  1042    53.2658    2041(45)          2084.0803         2069.8860                                                                  
  1043    53.3158    2056(45)          2083.9529         2070.4785                                                                  
  1044    53.3658    2013(44)          2083.8909         2071.0710                                                                  
  1045    53.4158    1975(44)          2083.8867         2071.6633                                                                  
  1046    53.4658    2026(45)          2083.9348         2072.2559                                                                  
  1047    53.5158    2051(45)          2084.0286         2072.8481                                                                  
  1048    53.5658    2004(44)          2084.1641         2073.4407                                                                  
  1049    53.6158    2028(45)          2084.3369         2074.0332                                                                  
  1050    53.6658    2042(45)          2084.5432         2074.6255                                                                  
  1051    53.7158    2020(44)          2084.7803         2075.2180                                                                  
  1052    53.7658    2020(44)          2085.0454         2075.8105                                                                  
  1053    53.8158    2024(44)          2085.3354         2076.4028                                                                  
  1054    53.8658    1891(43)          2085.6492         2076.9954                                                                  
  1055    53.9158    1918(43)          2085.9844         2077.5879                                                                  
  1056    53.9658    1958(44)          2086.3389         2078.1802                                                                  
  1057    54.0158    2019(44)          2086.7122         2078.7727                                                                  
  1058    54.0658    2009(44)          2087.1025         2079.3652                                                                  
  1059    54.1158    2044(45)          2087.5085         2079.9575                                                                  
  1060    54.1658    2017(44)          2087.9297         2080.5500                                                                  
  1061    54.2158    2024(44)          2088.3650         2081.1426                                                                  
  1062    54.2658    2105(45)          2088.8132         2081.7349                                                                  
  1063    54.3158    2056(45)          2089.2744         2082.3274                                                                  
  1064    54.3658    1995(44)          2089.7478         2082.9199                                                                  
  1065    54.4158    2017(44)          2090.2327         2083.5122                                                                  
  1066    54.4658    2003(44)          2090.7288         2084.1047                                                                  
  1067    54.5158    1988(44)          2091.2356         2084.6970                                                                  
  1068    54.5658    2040(45)          2091.7532         2085.2896                                                                  
  1069    54.6158    2024(44)          2092.2815         2085.8821                                                                  
  1070    54.6658    1972(44)          2092.9395         2086.4744                                                                  
  1071    54.7158    2042(45)          2093.4895         2087.0669                                                                  
  1072    54.7658    2055(45)          2094.0498         2087.6594                                                                  
  1073    54.8158    2030(45)          2094.6204         2088.2517                                                                  
  1074    54.8658    2020(44)          2095.2021         2088.8442                                                                  
  1075    54.9158    2001(44)          2095.7947         2089.4368                                                                  
  1076    54.9658    1982(44)          2096.3987         2090.0291                                                                  
  1077    55.0158    1980(44)          2097.0146         2090.6216                                                                  
  1078    55.0658    1989(44)          2097.6428         2091.2139                                                                  
  1079    55.1158    2059(45)          2098.2844         2091.8064                                                                  
  1080    55.1658    1962(44)          2098.9402         2092.3989                                                                  
  1081    55.2158    1926(43)          2099.6111         2092.9912                                                                  
  1082    55.2658    1945(44)          2100.2983         2093.5837                                                                  
  1083    55.3158    1991(44)          2101.0037         2094.1763                                                                  
  1084    55.3658    1943(44)          2101.7285         2094.7688                                                                  
  1085    55.4158    2016(44)          2102.4746         2095.3611                                                                  
  1086    55.4658    2123(46)          2103.2451         2095.9536                                                                  
  1087    55.5158    2060(45)          2104.0425         2096.5459                                                                  
  1088    55.5658    2009(44)          2104.8701         2097.1384                                                                  
  1089    55.6158    2064(45)          2105.7322         2097.7310                                                                  
  1090    55.6658    2119(46)          2106.8162         2098.3232                                                                  
  1091    55.7158    2094(45)          2107.7642         2098.9158                                                                  
  1092    55.7658    2055(45)          2108.7646         2099.5083                                                                  
  1093    55.8158    2073(45)          2109.8271         2100.1006                                                                  
  1094    55.8658    2048(45)          2110.9666         2100.6931                                                                  
  1095    55.9158    2099(45)          2112.2065         2101.2856                                                                  
  1096    55.9658    2093(45)          2113.5950         2101.8779                                                                  
  1097    56.0158    2113(45)          2115.2351         2102.4705                                                                  
  1098    56.0658    2125(46)          2117.3528         2103.0627                                                                  
  1099    56.1158    2243(47)          2120.4395         2103.6553                                                                  
  1100    56.1658    2383(48)          2125.5024         2104.2478                                                                  
  1101    56.2158    2539(50)          2134.5188         2104.8401                                                                  
  1102    56.2658    2873(53)          2150.9202         2105.4326                                                                  
  1103    56.3158    3359(57)          2180.4961         2106.0251                                                                  
  1104    56.3658    4251(65)          2231.9399         2106.6174                                                                  
  1105    56.4158    4968(70)          2316.8242         2107.2100                                                                  
  1106    56.4658    5974(77)          2448.8374         2107.8025                                                                  
  1107    56.5158    6737(82)          2641.0466         2108.3948                                                                  
  1108    56.5658    7531(86)          2901.6841         2108.9873                                                                  
  1109    56.6158    8080(89)          3229.0283         2109.5798                                                                  
  1110    56.6658    8251(90)          3606.9829         2110.1721                                                                  
  1111    56.7158    8318(91)          4004.0193         2110.7646                                                                  
  1112    56.7658    8011(89)          4376.6309         2111.3569                                                                  
  1113    56.8158    7715(87)          4679.3008         2111.9495                                                                  
  1114    56.8658    7423(86)          4876.0957         2112.5420                                                                  
  1115    56.9158    7114(84)          4953.8438         2113.1345                                                                  
  1116    56.9658    6803(82)          4926.8848         2113.7268                                                                  
  1117    57.0158    6731(82)          4828.4297         2114.3193                                                                  
  1118    57.0658    6745(82)          4691.8906         2114.9116                                                                  
  1119    57.1158    6541(80)          4533.6348         2115.5042                                                                  
  1120    57.1658    6249(79)          4347.4150         2116.0967                                                                  
  1121    57.2158    5900(76)          4113.8442         2116.6890                                                                  
  1122    57.2658    5226(72)          3821.5134         2117.2815                                                                  
  1123    57.3158    4688(68)          3484.3682         2117.8740                                                                  
  1124    57.3658    3898(62)          3138.3579         2118.4663                                                                  
  1125    57.4158    3260(57)          2823.9390         2119.0588                                                                  
  1126    57.4658    2752(52)          2570.3215         2119.6514                                                                  
  1127    57.5158    2448(49)          2388.1882         2120.2437                                                                  
  1128    57.5658    2227(47)          2271.1970         2120.8362                                                                  
  1129    57.6158    2101(45)          2203.6711         2121.4287                                                                  
  1130    57.6658    2060(45)          2168.3613         2122.0210                                                                  
  1131    57.7158    2074(45)          2151.3928         2122.6135                                                                  
  1132    57.7658    2062(45)          2143.7009         2123.2058                                                                  
  1133    57.8158    2035(45)          2140.2571         2123.7983                                                                  
  1134    57.8658    2045(45)          2138.6294         2124.3909                                                                  
  1135    57.9158    2100(45)          2137.7720         2124.9832                                                                  
  1136    57.9658    2048(45)          2137.2729         2125.5757                                                                  
  1137    58.0158    2027(45)          2136.9741         2126.1682                                                                  
  1138    58.0658    1974(44)          2136.8115         2126.7605                                                                  
  1139    58.1158    2022(44)          2136.7539         2127.3530                                                                  
  1140    58.1658    1990(44)          2136.7810         2127.9456                                                                  
  1141    58.2158    2079(45)          2136.8787         2128.5378                                                                  
  1142    58.2658    2028(45)          2137.0359         2129.1304                                                                  
  1143    58.3158    2034(45)          2137.2434         2129.7229                                                                  
  1144    58.3658    2035(45)          2137.4939         2130.3152                                                                  
  1145    58.4158    2017(44)          2137.7817         2130.9077                                                                  
  1146    58.4658    2100(45)          2138.1018         2131.5002                                                                  
  1147    58.5158    2061(45)          2138.4497         2132.0925                                                                  
  1148    58.5658    2074(45)          2138.8223         2132.6851                                                                  
  1149    58.6158    1994(44)          2139.2163         2133.2776                                                                  
  1150    58.6658    2077(45)          2139.6680         2133.8699                                                                  
  1151    58.7158    2086(45)          2140.0984         2134.4624                                                                  
  1152    58.7658    2023(44)          2140.5437         2135.0547                                                                  
  1153    58.8158    2053(45)          2141.0029         2135.6472                                                                  
  1154    58.8658    2068(45)          2141.4741         2136.2397                                                                  
  1155    58.9158    2066(45)          2141.9561         2136.8320                                                                  
  1156    58.9658    2025(45)          2142.4482         2137.4246                                                                  
  1157    59.0158    2014(44)          2142.9495         2138.0171                                                                  
  1158    59.0658    2011(44)          2143.4585         2138.6094                                                                  
  1159    59.1158    1967(44)          2143.9753         2139.2019                                                                  
  1160    59.1658    2004(44)          2144.4993         2139.7944                                                                  
  1161    59.2158    1997(44)          2145.0291         2140.3867                                                                  
  1162    59.2658    2035(45)          2145.5649         2140.9792                                                                  
  1163    59.3158    2085(45)          2146.1062         2141.5715                                                                  
  1164    59.3658    2061(45)          2146.6526         2142.1641                                                                  
  1165    59.4158    2064(45)          2147.2036         2142.7566                                                                  
  1166    59.4658    2080(45)          2147.7588         2143.3489                                                                  
  1167    59.5158    2051(45)          2148.3308         2143.9414                                                                  
  1168    59.5658    2059(45)          2148.8943         2144.5339                                                                  
  1169    59.6158    2086(45)          2149.4614         2145.1265                                                                  
  1170    59.6658    2053(45)          2150.0317         2145.7188                                                                  
  1171    59.7158    2051(45)          2150.6055         2146.3113                                                                  
  1172    59.7658    2033(45)          2151.1821         2146.9036                                                                  
  1173    59.8158    2020(44)          2151.7617         2147.4961                                                                  
  1174    59.8658    2014(44)          2152.3445         2148.0886                                                                  
  1175    59.9158    2100(45)          2152.9294         2148.6809                                                                  
  1176    59.9658    2102(45)          2153.5171         2149.2734                                                                  
  1177    60.0158    2111(45)          2154.1074         2149.8660                                                                  
  1178    60.0658    2064(45)          2154.7000         2150.4583                                                                  
  1179    60.1158    2047(45)          2155.3262         2151.0508                                                                  
  1180    60.1658    2022(44)          2155.9236         2151.6433                                                                  
  1181    60.2158    2039(45)          2156.5232         2152.2356                                                                  
  1182    60.2658    2128(46)          2157.1250         2152.8281                                                                  
  1183    60.3158    2068(45)          2157.7288         2153.4204                                                                  
  1184    60.3658    2039(45)          2158.3347         2154.0129                                                                  
  1185    60.4158    2059(45)          2158.9429         2154.6055                                                                  
  1186    60.4658    2045(45)          2159.5525         2155.1978                                                                  
  1187    60.5158    2043(45)          2160.1646         2155.7903                                                                  
  1188    60.5658    2101(45)          2160.7786         2156.3828                                                                  
  1189    60.6158    2038(45)          2161.3940         2156.9751                                                                  
  1190    60.6658    2200(46)          2162.0190         2157.5676                                                                  
  1191    60.7158    2108(45)          2162.6387         2158.1602                                                                  
  1192    60.7658    2056(45)          2163.2603         2158.7524                                                                  
  1193    60.8158    2087(45)          2163.8838         2159.3450                                                                  
  1194    60.8658    2096(45)          2164.5093         2159.9375                                                                  
  1195    60.9158    2083(45)          2165.1365         2160.5298                                                                  
  1196    60.9658    2056(45)          2165.7659         2161.1223                                                                  
  1197    61.0158    2058(45)          2166.3972         2161.7148                                                                  
  1198    61.0658    2106(45)          2167.0303         2162.3071                                                                  
  1199    61.1158    2112(45)          2167.6658         2162.8997                                                                  
  1200    61.1658    2050(45)          2168.3032         2163.4922                                                                  
  1201    61.2158    2093(45)          2168.9424         2164.0845                                                                  
  1202    61.2658    2120(46)          2169.5840         2164.6770                                                                  
  1203    61.3158    2097(45)          2170.2275         2165.2693                                                                  
  1204    61.3658    2196(46)          2170.8735         2165.8618                                                                  
  1205    61.4158    2200(46)          2171.5217         2166.4543                                                                  
  1206    61.4658    2300(47)          2172.1721         2167.0466                                                                  
  1207    61.5158    2296(47)          2172.8250         2167.6392                                                                  
  1208    61.5658    2201(46)          2173.4802         2168.2317                                                                  
  1209    61.6158    2212(47)          2174.1377         2168.8240                                                                  
  1210    61.6658    2153(46)          2174.7979         2169.4165                                                                  
  1211    61.7158    2100(45)          2175.4607         2170.0090                                                                  
  1212    61.7658    2087(45)          2176.1262         2170.6013                                                                  
  1213    61.8158    2128(46)          2176.7944         2171.1938                                                                  
  1214    61.8658    2054(45)          2177.4656         2171.7864                                                                  
  1215    61.9158    2121(46)          2178.1396         2172.3787                                                                  
  1216    61.9658    2131(46)          2178.8167         2172.9712                                                                  
  1217    62.0158    2074(45)          2179.4968         2173.5635                                                                  
  1218    62.0658    2095(45)          2180.1804         2174.1560                                                                  
  1219    62.1158    2048(45)          2180.8674         2174.7485                                                                  
  1220    62.1658    2010(44)          2181.5698         2175.3408                                                                  
  1221    62.2158    2095(45)          2182.2639         2175.9333                                                                  
  1222    62.2658    2098(45)          2182.9619         2176.5259                                                                  
  1223    62.3158    2111(45)          2183.6636         2177.1182                                                                  
  1224    62.3658    2114(45)          2184.3696         2177.7107                                                                  
  1225    62.4158    2179(46)          2185.0798         2178.3032                                                                  
  1226    62.4658    2126(46)          2185.7942         2178.8955                                                                  
  1227    62.5158    2045(45)          2186.5137         2179.4880                                                                  
  1228    62.5658    2133(46)          2187.2378         2180.0806                                                                  
  1229    62.6158    2100(45)          2187.9666         2180.6729                                                                  
  1230    62.6658    2058(45)          2188.7009         2181.2654                                                                  
  1231    62.7158    2156(46)          2189.4409         2181.8579                                                                  
  1232    62.7658    2181(46)          2190.1865         2182.4502                                                                  
  1233    62.8158    2130(46)          2190.9404         2183.0427                                                                  
  1234    62.8658    2157(46)          2191.6985         2183.6353                                                                  
  1235    62.9158    2075(45)          2192.4629         2184.2275                                                                  
  1236    62.9658    2090(45)          2193.2346         2184.8201                                                                  
  1237    63.0158    2101(45)          2194.0132         2185.4124                                                                  
  1238    63.0658    2024(44)          2194.8000         2186.0049                                                                  
  1239    63.1158    2070(45)          2195.5947         2186.5974                                                                  
  1240    63.1658    2171(46)          2196.2483         2187.1897                                                                  
  1241    63.2158    2079(45)          2197.0720         2187.7822                                                                  
  1242    63.2658    2133(46)          2197.8167         2188.3748                                                                  
  1243    63.3158    2144(46)          2198.6526         2188.9670                                                                  
  1244    63.3658    2042(45)          2199.4963         2189.5596                                                                  
  1245    63.4158    2042(45)          2200.3516         2190.1521                                                                  
  1246    63.4658    1957(44)          2201.2180         2190.7444                                                                  
  1247    63.5158    2106(45)          2202.0974         2191.3369                                                                  
  1248    63.5658    2115(45)          2202.9897         2191.9292                                                                  
  1249    63.6158    2027(45)          2203.8965         2192.5217                                                                  
  1250    63.6658    2172(46)          2204.8184         2193.1143                                                                  
  1251    63.7158    2176(46)          2205.7556         2193.7065                                                                  
  1252    63.7658    2079(45)          2206.7102         2194.2991                                                                  
  1253    63.8158    2162(46)          2207.6829         2194.8916                                                                  
  1254    63.8658    2175(46)          2208.6746         2195.4839                                                                  
  1255    63.9158    2173(46)          2209.6870         2196.0764                                                                  
  1256    63.9658    2139(46)          2210.7217         2196.6689                                                                  
  1257    64.0158    2085(45)          2211.7795         2197.2612                                                                  
  1258    64.0658    2122(46)          2212.8630         2197.8538                                                                  
  1259    64.1158    2222(47)          2213.9736         2198.4463                                                                  
  1260    64.1658    2163(46)          2215.1133         2199.0386                                                                  
  1261    64.2158    2230(47)          2216.2847         2199.6311                                                                  
  1262    64.2658    2148(46)          2217.4900         2200.2236                                                                  
  1263    64.3158    2228(47)          2218.7317         2200.8159                                                                  
  1264    64.3658    2137(46)          2220.0132         2201.4084                                                                  
  1265    64.4158    2228(47)          2221.3374         2202.0007                                                                  
  1266    64.4658    2185(46)          2222.7085         2202.5933                                                                  
  1267    64.5158    2227(47)          2224.1304         2203.1858                                                                  
  1268    64.5658    2355(48)          2225.6069         2203.7781                                                                  
  1269    64.6158    2446(49)          2227.1443         2204.3706                                                                  
  1270    64.6658    2465(49)          2228.7471         2204.9631                                                                  
  1271    64.7158    2457(49)          2230.4221         2205.5554                                                                  
  1272    64.7658    2570(50)          2232.1765         2206.1479                                                                  
  1273    64.8158    2499(49)          2234.0181         2206.7405                                                                  
  1274    64.8658    2445(49)          2235.9561         2207.3328                                                                  
  1275    64.9158    2360(48)          2238.0005         2207.9253                                                                  
  1276    64.9658    2450(49)          2240.1633         2208.5178                                                                  
  1277    65.0158    2405(49)          2242.4578         2209.1101                                                                  
  1278    65.0658    2358(48)          2244.8989         2209.7026                                                                  
  1279    65.1158    2396(48)          2247.5049         2210.2952                                                                  
  1280    65.1658    2454(49)          2250.2952         2210.8875                                                                  
  1281    65.2158    2375(48)          2253.2947         2211.4800                                                                  
  1282    65.2658    2531(50)          2256.5303         2212.0725                                                                  
  1283    65.3158    2469(49)          2260.0339         2212.6648                                                                  
  1284    65.3658    2449(49)          2263.8450         2213.2573                                                                  
  1285    65.4158    2455(49)          2268.0073         2213.8496                                                                  
  1286    65.4658    2313(48)          2272.5767         2214.4421                                                                  
  1287    65.5158    2340(48)          2277.6177         2215.0347                                                                  
  1288    65.5658    2354(48)          2283.2083         2215.6270                                                                  
  1289    65.6158    2487(49)          2289.4475         2216.2195                                                                  
  1290    65.6658    2457(49)          2296.4297         2216.8120                                                                  
  1291    65.7158    2572(50)          2304.3667         2217.4043                                                                  
  1292    65.7658    2752(52)          2313.4695         2217.9968                                                                  
  1293    65.8158    3328(57)          2324.1274         2218.5894                                                                  
  1294    65.8658    4295(65)          2337.1768         2219.1816                                                                  
  1295    65.9158    5740(75)          2354.5259         2219.7742                                                                  
  1296    65.9658    7659(87)          2380.8176         2220.3667                                                                  
  1297    66.0158    10125(100)          2426.4934         2220.9590                                                                
  1298    66.0658    12465(111)          2513.6001         2221.5515                                                                
  1299    66.1158    14499(120)          2684.4297         2222.1440                                                                
  1300    66.1658    15696(125)          3011.4602         2222.7363                                                                
  1301    66.2158    16349(127)          3604.4629         2223.3289                                                                
  1302    66.2658    16614(128)          4605.3096         2223.9214                                                                
  1303    66.3158    17129(130)          6161.2012         2224.5137                                                                
  1304    66.3658    18224(134)          8372.6875         2225.1062                                                                
  1305    66.4158    20633(143)         11222.2773         2225.6985                                                                
  1306    66.4658    24149(155)         14520.2422         2226.2910                                                                
  1307    66.5158    28786(169)         17898.2988         2226.8835                                                                
  1308    66.5658    33857(184)         20894.7812         2227.4758                                                                
  1309    66.6158    38714(196)         23121.6641         2228.0684                                                                
  1310    66.6658    42724(206)         24434.2051         2228.6606                                                                
  1311    66.7158    45729(213)         25003.9414         2229.2532                                                                
  1312    66.7658    47697(218)         25204.4414         2229.8457                                                                
  1313    66.8158    48147(219)         25384.4297         2230.4380                                                                
  1314    66.8658    47448(217)         25692.7969         2231.0305                                                                
  1315    66.9158    46422(215)         26030.9316         2231.6230                                                                
  1316    66.9658    43989(209)         26124.9609         2232.2153                                                                
  1317    67.0158    40617(201)         25669.5117         2232.8079                                                                
  1318    67.0658    36554(191)         24469.7012         2233.4004                                                                
  1319    67.1158    31522(177)         22512.1973         2233.9927                                                                
  1320    67.1658    26301(162)         19952.3672         2234.5852                                                                
  1321    67.2158    21323(146)         17046.0195         2235.1777                                                                
  1322    67.2658    16700(129)         14076.4453         2235.7700                                                                
  1323    67.3158    12585(112)         11292.0908         2236.3625                                                                
  1324    67.3658    9203(95)          8867.3896         2236.9551                                                                  
  1325    67.4158    6677(81)          6892.9692         2237.5474                                                                  
  1326    67.4658    4848(69)          5380.9556         2238.1399                                                                  
  1327    67.5158    3706(60)          4288.2847         2238.7324                                                                  
  1328    67.5658    3026(55)          3540.5986         2239.3247                                                                  
  1329    67.6158    2742(52)          3054.2588         2239.9172                                                                  
  1330    67.6658    2554(50)          2752.4536         2240.5095                                                                  
  1331    67.7158    2322(48)          2572.5640         2241.1021                                                                  
  1332    67.7658    2314(48)          2468.6328         2241.6946                                                                  
  1333    67.8158    2279(47)          2409.5100         2242.2869                                                                  
  1334    67.8658    2234(47)          2375.6255         2242.8794                                                                  
  1335    67.9158    2363(48)          2355.3486         2243.4719                                                                  
  1336    67.9658    2351(48)          2342.3123         2244.0642                                                                  
  1337    68.0158    2325(48)          2333.1321         2244.6567                                                                  
  1338    68.0658    2326(48)          2326.1204         2245.2493                                                                  
  1339    68.1158    2351(48)          2320.4180         2245.8416                                                                  
  1340    68.1658    2274(47)          2315.6055         2246.4341                                                                  
  1341    68.2158    2316(48)          2311.4585         2247.0266                                                                  
  1342    68.2658    2265(47)          2307.8481         2247.6189                                                                  
  1343    68.3158    2284(47)          2304.6519         2248.2114                                                                  
  1344    68.3658    2314(48)          2301.8816         2248.8040                                                                  
  1345    68.4158    2251(47)          2299.4871         2249.3962                                                                  
  1346    68.4658    2249(47)          2297.3528         2249.9888                                                                  
  1347    68.5158    2290(47)          2295.4810         2250.5813                                                                  
  1348    68.5658    2278(47)          2293.8428         2251.1736                                                                  
  1349    68.6158    2231(47)          2292.4165         2251.7661                                                                  
  1350    68.6658    2231(47)          2291.1726         2252.3584                                                                  
  1351    68.7158    2155(46)          2290.0964         2252.9509                                                                  
  1352    68.7658    2178(46)          2289.1721         2253.5435                                                                  
  1353    68.8158    2279(47)          2288.3770         2254.1357                                                                  
  1354    68.8658    2252(47)          2287.7161         2254.7283                                                                  
  1355    68.9158    2163(46)          2287.1707         2255.3208                                                                  
  1356    68.9658    2293(47)          2286.7312         2255.9131                                                                  
  1357    69.0158    2230(47)          2286.3901         2256.5056                                                                  
  1358    69.0658    2166(46)          2286.1409         2257.0981                                                                  
  1359    69.1158    2212(47)          2285.9771         2257.6904                                                                  
  1360    69.1658    2123(46)          2285.8948         2258.2830                                                                  
  1361    69.2158    2201(46)          2285.8894         2258.8755                                                                  
  1362    69.2658    2234(47)          2285.9573         2259.4678                                                                  
  1363    69.3158    2271(47)          2286.0969         2260.0603                                                                  
  1364    69.3658    2133(46)          2286.3149         2260.6528                                                                  
  1365    69.4158    2123(46)          2286.5928         2261.2451                                                                  
  1366    69.4658    2243(47)          2286.9404         2261.8376                                                                  
  1367    69.5158    2203(46)          2287.3594         2262.4302                                                                  
  1368    69.5658    2255(47)          2287.8538         2263.0225                                                                  
  1369    69.6158    2102(45)          2288.4314         2263.6150                                                                  
  1370    69.6658    2172(46)          2289.1033         2264.2073                                                                  
  1371    69.7158    2124(46)          2289.8879         2264.7998                                                                  
  1372    69.7658    2271(47)          2290.8125         2265.3923                                                                  
  1373    69.8158    2223(47)          2291.9165         2265.9846                                                                  
  1374    69.8658    2205(46)          2293.4060         2266.5771                                                                  
  1375    69.9158    2212(47)          2295.0696         2267.1694                                                                  
  1376    69.9658    2276(47)          2297.1680         2267.7620                                                                  
  1377    70.0158    2246(47)          2299.8564         2268.3545                                                                  
  1378    70.0658    2184(46)          2303.3398         2268.9468                                                                  
  1379    70.1158    2284(47)          2307.8855         2269.5393                                                                  
  1380    70.1658    2237(47)          2313.8274         2270.1318                                                                  
  1381    70.2158    2277(47)          2321.5762         2270.7241                                                                  
  1382    70.2658    2384(48)          2331.6177         2271.3167                                                                  
  1383    70.3158    2458(49)          2344.5046         2271.9092                                                                  
  1384    70.3658    2519(50)          2360.8516         2272.5015                                                                  
  1385    70.4158    2614(51)          2381.2971         2273.0940                                                                  
  1386    70.4658    2841(53)          2406.4961         2273.6865                                                                  
  1387    70.5158    3087(55)          2437.0837         2274.2791                                                                  
  1388    70.5658    3452(58)          2473.7061         2274.8713                                                                  
  1389    70.6158    3578(59)          2517.1953         2275.4639                                                                  
  1390    70.6658    4047(63)          2568.8328         2276.0562                                                                  
  1391    70.7158    4534(67)          2631.2441         2276.6487                                                                  
  1392    70.7658    5136(71)          2709.5659         2277.2412                                                                  
  1393    70.8158    5775(75)          2813.2725         2277.8335                                                                  
  1394    70.8658    6235(78)          2958.1829         2278.4260                                                                  
  1395    70.9158    6707(81)          3167.5786         2279.0183                                                                  
  1396    70.9658    7095(84)          3471.3210         2279.6108                                                                  
  1397    71.0158    7613(87)          3900.9072         2280.2034                                                                  
  1398    71.0658    8160(90)          4480.1885         2280.7957                                                                  
  1399    71.1158    9068(95)          5213.2881         2281.3882                                                                  
  1400    71.1658    10115(100)          6072.3999         2281.9807                                                                
  1401    71.2158    11726(108)          6993.9907         2282.5732                                                                
  1402    71.2658    13148(114)          7885.9634         2283.1655                                                                
  1403    71.3158    14484(120)          8651.2988         2283.7581                                                                
  1404    71.3658    15477(124)          9219.2383         2284.3506                                                                
  1405    71.4158    15723(125)          9565.4219         2284.9429                                                                
  1406    71.4658    15389(124)          9707.4053         2285.5354                                                                
  1407    71.5158    14934(122)          9674.8291         2286.1279                                                                
  1408    71.5658    14053(118)          9482.5234         2286.7202                                                                
  1409    71.6158    12686(112)          9126.0967         2287.3127                                                                
  1410    71.6658    11286(106)          8600.3096         2287.9050                                                                
  1411    71.7158    9695(98)          7922.2246         2288.4976                                                                  
  1412    71.7658    8465(92)          7141.2188         2289.0901                                                                  
  1413    71.8158    7355(85)          6329.3745         2289.6824                                                                  
  1414    71.8658    6128(78)          5561.9102         2290.2749                                                                  
  1415    71.9158    5219(72)          4898.3740         2290.8672                                                                  
  1416    71.9658    4874(69)          4368.2021         2291.4597                                                                  
  1417    72.0158    4383(66)          3968.4556         2292.0522                                                                  
  1418    72.0658    4275(65)          3671.1870         2292.6445                                                                  
  1419    72.1158    4099(64)          3438.3901         2293.2371                                                                  
  1420    72.1658    3795(61)          3238.3203         2293.8296                                                                  
  1421    72.2158    3682(60)          3054.2585         2294.4219                                                                  
  1422    72.2658    3432(58)          2883.6301         2295.0144                                                                  
  1423    72.3158    3086(55)          2731.8696         2295.6069                                                                  
  1424    72.3658    2858(53)          2605.0928         2296.1992                                                                  
  1425    72.4158    2641(51)          2507.2683         2296.7917                                                                  
  1426    72.4658    2450(49)          2437.6123         2297.3843                                                                  
  1427    72.5158    2340(48)          2391.7615         2297.9766                                                                  
  1428    72.5658    2262(47)          2363.6643         2298.5691                                                                  
  1429    72.6158    2202(46)          2347.4165         2299.1616                                                                  
  1430    72.6658    2276(47)          2338.3540         2299.7539                                                                  
  1431    72.7158    2294(47)          2333.3005         2300.3464                                                                  
  1432    72.7658    2310(48)          2330.3540         2300.9390                                                                  
  1433    72.8158    2240(47)          2328.4863         2301.5312                                                                  
  1434    72.8658    2227(47)          2327.1873         2302.1238                                                                  
  1435    72.9158    2266(47)          2326.2349         2302.7161                                                                  
  1436    72.9658    2267(47)          2325.4836         2303.3086                                                                  
  1437    73.0158    2275(47)          2324.8950         2303.9011                                                                  
  1438    73.0658    2277(47)          2324.4377         2304.4934                                                                  
  1439    73.1158    2161(46)          2324.0911         2305.0859                                                                  
  1440    73.1658    2217(47)          2323.5620         2305.4009                                                                  
  1441    73.2158    2300(47)          2323.0374         2305.6377                                                                  
  1442    73.2658    2161(46)          2322.5859         2305.8745                                                                  
  1443    73.3158    2248(47)          2322.2053         2306.1113                                                                  
  1444    73.3658    2217(47)          2321.8762         2306.3481                                                                  
  1445    73.4158    2186(46)          2321.5989         2306.5847                                                                  
  1446    73.4658    2235(47)          2321.3682         2306.8215                                                                  
  1447    73.5158    2289(47)          2321.1799         2307.0583                                                                  
  1448    73.5658    2232(47)          2321.0308         2307.2952                                                                  
  1449    73.6158    2203(46)          2320.9165         2307.5317                                                                  
  1450    73.6658    2301(47)          2320.8357         2307.7686                                                                  
  1451    73.7158    2351(48)          2320.7852         2308.0054                                                                  
  1452    73.7658    2319(48)          2320.7632         2308.2422                                                                  
  1453    73.8158    2256(47)          2320.7681         2308.4788                                                                  
  1454    73.8658    2207(46)          2320.7988         2308.7156                                                                  
  1455    73.9158    2215(47)          2320.8545         2308.9524                                                                  
  1456    73.9658    2215(47)          2320.9341         2309.1892                                                                  
  1457    74.0158    2334(48)          2321.0381         2309.4260                                                                  
  1458    74.0658    2294(47)          2321.1667         2309.6626                                                                  
  1459    74.1158    2232(47)          2321.3225         2309.8994                                                                  
  1460    74.1658    2283(47)          2321.5093         2310.1362                                                                  
  1461    74.2158    2251(47)          2321.7332         2310.3730                                                                  
  1462    74.2658    2347(48)          2322.0056         2310.6099                                                                  
  1463    74.3158    2297(47)          2322.3440         2310.8464                                                                  
  1464    74.3658    2243(47)          2322.7773         2311.0833                                                                  
  1465    74.4158    2262(47)          2323.3491         2311.3201                                                                  
  1466    74.4658    2332(48)          2324.1248         2311.5569                                                                  
  1467    74.5158    2319(48)          2325.2004         2311.7935                                                                  
  1468    74.5658    2345(48)          2326.7209         2312.0303                                                                  
  1469    74.6158    2485(49)          2328.8691         2312.2671                                                                  
  1470    74.6658    2463(49)          2331.9143         2312.5039                                                                  
  1471    74.7158    2546(50)          2336.2073         2312.7407                                                                  
  1472    74.7658    2695(51)          2342.1970         2312.9773                                                                  
  1473    74.8158    2845(53)          2350.4421         2313.2141                                                                  
  1474    74.8658    3052(55)          2361.6160         2313.4509                                                                  
  1475    74.9158    3249(57)          2376.4875         2313.6877                                                                  
  1476    74.9658    3658(60)          2395.9111         2313.9243                                                                  
  1477    75.0158    3984(63)          2420.7659         2314.1611                                                                  
  1478    75.0658    4265(65)          2451.8940         2314.3979                                                                  
  1479    75.1158    4313(65)          2490.0315         2314.6348                                                                  
  1480    75.1658    4445(66)          2535.6716         2314.8716                                                                  
  1481    75.2158    4720(68)          2589.0005         2315.1082                                                                  
  1482    75.2658    4917(70)          2649.7461         2315.3450                                                                  
  1483    75.3158    4824(69)          2717.1055         2315.5818                                                                  
  1484    75.3658    4906(70)          2789.7231         2315.8186                                                                  
  1485    75.4158    4810(69)          2865.6121         2316.0552                                                                  
  1486    75.4658    4746(68)          2942.2874         2316.2920                                                                  
  1487    75.5158    4559(67)          3016.7937         2316.5288                                                                  
  1488    75.5658    4399(66)          3085.9075         2316.7656                                                                  
  1489    75.6158    4286(65)          3146.3843         2317.0024                                                                  
  1490    75.6658    4198(64)          3195.1497         2317.2390                                                                  
  1491    75.7158    4073(63)          3229.5981         2317.4758                                                                  
  1492    75.7658    3823(61)          3247.8628         2317.7126                                                                  
  1493    75.8158    3873(62)          3249.0181         2317.9495                                                                  
  1494    75.8658    3829(61)          3233.2200         2318.1863                                                                  
  1495    75.9158    3769(61)          3201.7656         2318.4229                                                                  
  1496    75.9658    3479(58)          3157.0698         2318.6597                                                                  
  1497    76.0158    3393(58)          3102.6689         2318.8965                                                                  
  1498    76.0658    3398(58)          3043.1948         2319.1333                                                                  
  1499    76.1158    3126(55)          2984.2783         2319.3699                                                                  
  1500    76.1658    3078(55)          2932.3816         2319.6067                                                                  
  1501    76.2158    3011(54)          2894.1289         2319.8435                                                                  
  1502    76.2658    3013(54)          2875.2402         2320.0803                                                                  
  1503    76.3158    3004(54)          2878.8962         2320.3169                                                                  
  1504    76.3658    3202(56)          2904.0635         2320.5537                                                                  
  1505    76.4158    3342(57)          2944.3894         2320.7905                                                                  
  1506    76.4658    3570(59)          2988.4409         2321.0273                                                                  
  1507    76.5158    3750(61)          3021.5562         2321.2642                                                                  
  1508    76.5658    3777(61)          3029.3984         2321.5007                                                                  
  1509    76.6158    3768(61)          3002.6301         2321.7375                                                                  
  1510    76.6658    3743(61)          2940.7561         2321.9744                                                                  
  1511    76.7158    3486(59)          2852.0520         2322.2112                                                                  
  1512    76.7658    3363(57)          2749.8000         2322.4480                                                                  
  1513    76.8158    3203(56)          2647.7668         2322.6846                                                                  
  1514    76.8658    2997(54)          2556.8169         2322.9214                                                                  
  1515    76.9158    2724(52)          2483.3071         2323.1582                                                                  
  1516    76.9658    2685(51)          2428.9478         2323.3950                                                                  
  1517    77.0158    2603(51)          2391.8577         2323.6318                                                                  
  1518    77.0658    2598(50)          2368.4307         2323.8684                                                                  
  1519    77.1158    2492(49)          2354.6360         2324.1052                                                                  
  1520    77.1658    2512(50)          2347.0142         2324.3420                                                                  
  1521    77.2158    2556(50)          2343.0247         2324.5789                                                                  
  1522    77.2658    2520(50)          2341.0264         2324.8154                                                                  
  1523    77.3158    2549(50)          2340.0627         2325.0522                                                                  
  1524    77.3658    2601(51)          2339.6287         2325.2891                                                                  
  1525    77.4158    2558(50)          2339.4570         2325.5259                                                                  
  1526    77.4658    2616(51)          2339.4341         2325.7625                                                                  
  1527    77.5158    2626(51)          2339.5046         2325.9993                                                                  
  1528    77.5658    2505(50)          2339.6416         2326.2361                                                                  
  1529    77.6158    2544(50)          2339.8313         2326.4729                                                                  
  1530    77.6658    2466(49)          2339.9131         2326.7097                                                                  
  1531    77.7158    2470(49)          2340.1885         2326.9463                                                                  
  1532    77.7658    2449(49)          2340.5007         2327.1831                                                                  
  1533    77.8158    2448(49)          2340.8472         2327.4199                                                                  
  1534    77.8658    2496(49)          2341.2263         2327.6567                                                                  
  1535    77.9158    2385(48)          2341.6377         2327.8933                                                                  
  1536    77.9658    2402(49)          2342.0808         2328.1301                                                                  
  1537    78.0158    2440(49)          2342.5562         2328.3669                                                                  
  1538    78.0658    2444(49)          2343.0640         2328.6038                                                                  
  1539    78.1158    2457(49)          2343.6050         2328.8406                                                                  
  1540    78.1658    2459(49)          2344.2053         2329.0771                                                                  
  1541    78.2158    2487(49)          2344.8176         2329.3140                                                                  
  1542    78.2658    2553(50)          2345.4683         2329.5508                                                                  
  1543    78.3158    2494(49)          2346.1597         2329.7876                                                                  
  1544    78.3658    2462(49)          2346.8953         2330.0244                                                                  
  1545    78.4158    2456(49)          2347.6787         2330.2610                                                                  
  1546    78.4658    2450(49)          2348.3962         2330.4978                                                                  
  1547    78.5158    2397(48)          2349.2952         2330.7346                                                                  
  1548    78.5658    2397(48)          2350.2651         2330.9714                                                                  
  1549    78.6158    2357(48)          2351.3223         2331.2080                                                                  
  1550    78.6658    2450(49)          2352.4915         2331.4448                                                                  
  1551    78.7158    2390(48)          2353.8127         2331.6816                                                                  
  1552    78.7658    2351(48)          2355.3511         2331.9185                                                                  
  1553    78.8158    2396(48)          2357.2095         2332.1553                                                                  
  1554    78.8658    2379(48)          2359.5544         2332.3918                                                                  
  1555    78.9158    2429(49)          2362.6455         2332.6287                                                                  
  1556    78.9658    2361(48)          2366.8828         2332.8655                                                                  
  1557    79.0158    2494(49)          2372.8672         2333.1023                                                                  
  1558    79.0658    2707(52)          2381.4783         2333.3389                                                                  
  1559    79.1158    2867(53)          2393.9780         2333.5757                                                                  
  1560    79.1658    3090(55)          2412.1104         2333.8125                                                                  
  1561    79.2158    3496(59)          2438.2361         2334.0493                                                                  
  1562    79.2658    4131(64)          2475.4238         2334.2861                                                                  
  1563    79.3158    4788(69)          2527.5315         2334.5227                                                                  
  1564    79.3658    5687(75)          2599.2581         2334.7595                                                                  
  1565    79.4158    6682(81)          2696.0103         2334.9963                                                                  
  1566    79.4658    7604(87)          2823.7959         2335.2332                                                                  
  1567    79.5158    8691(93)          2988.7842         2335.4700                                                                  
  1568    79.5658    9500(97)          3196.8057         2335.7065                                                                  
  1569    79.6158    10368(101)          3452.7983         2335.9434                                                                
  1570    79.6658    11022(104)          3759.8027         2336.1802                                                                
  1571    79.7158    11573(107)          4118.3008         2336.4170                                                                
  1572    79.7658    11938(109)          4525.3008         2336.6536                                                                
  1573    79.8158    12213(110)          4973.6973         2336.8904                                                                
  1574    79.8658    12289(110)          5452.2061         2337.1272                                                                
  1575    79.9158    12297(110)          5944.9590         2337.3640                                                                
  1576    79.9658    12067(109)          6432.6240         2337.6006                                                                
  1577    80.0158    11865(108)          6892.9160         2337.8374                                                                
  1578    80.0658    11503(107)          7302.3081         2338.0742                                                                
  1579    80.1158    11268(106)          7638.1304         2338.3110                                                                
  1580    80.1658    10946(104)          7880.2837         2338.5479                                                                
  1581    80.2158    10401(101)          8013.9443         2338.7844                                                                
  1582    80.2658    9779(98)          8031.4629         2339.0212                                                                  
  1583    80.3158    9438(97)          7934.3184         2339.2581                                                                  
  1584    80.3658    8984(94)          7734.1035         2339.4949                                                                  
  1585    80.4158    8413(91)          7453.0781         2339.7314                                                                  
  1586    80.4658    7900(88)          7123.8066         2339.9683                                                                  
  1587    80.5158    7389(85)          6788.5068         2340.2051                                                                  
  1588    80.5658    7158(84)          6496.4829         2340.4419                                                                  
  1589    80.6158    7078(84)          6298.8066         2340.6787                                                                  
  1590    80.6658    7474(86)          6239.7241         2340.9153                                                                  
  1591    80.7158    8097(89)          6344.3711         2341.1521                                                                  
  1592    80.7658    9161(95)          6606.3232         2341.3889                                                                  
  1593    80.8158    10324(101)          6979.1953         2341.6257                                                                
  1594    80.8658    11354(106)          7377.9668         2341.8625                                                                
  1595    80.9158    11862(108)          7691.8838         2342.0991                                                                
  1596    80.9658    12018(109)          7810.1274         2342.3359                                                                
  1597    81.0158    11752(108)          7656.6025         2342.5728                                                                
  1598    81.0658    10846(104)          7220.7754         2342.8096                                                                
  1599    81.1158    9411(97)          6560.7637         2343.0461                                                                  
  1600    81.1658    7917(88)          5776.9863         2343.2830                                                                  
  1601    81.2158    6325(79)          4976.7988         2343.5198                                                                  
  1602    81.2658    5091(71)          4248.8872         2343.7566                                                                  
  1603    81.3158    4156(64)          3648.3818         2343.9934                                                                  
  1604    81.3658    3500(59)          3194.2822         2344.2300                                                                  
  1605    81.4158    2990(54)          2877.4351         2344.4668                                                                  
  1606    81.4658    2713(52)          2672.0125         2344.7036                                                                  
  1607    81.5158    2542(50)          2547.4421         2344.9404                                                                  
  1608    81.5658    2485(49)          2476.0913         2345.1770                                                                  
  1609    81.6158    2453(49)          2436.8850         2345.4138                                                                  
  1610    81.6658    2353(48)          2415.7205         2345.6506                                                                  
  1611    81.7158    2382(48)          2404.0701         2345.8875                                                                  
  1612    81.7658    2379(48)          2397.2368         2346.1243                                                                  
  1613    81.8158    2394(48)          2392.8171         2346.3608                                                                  
  1614    81.8658    2464(49)          2389.6536         2346.5977                                                                  
  1615    81.9158    2353(48)          2387.2085         2346.8345                                                                  
  1616    81.9658    2308(48)          2385.2385         2347.0713                                                                  
  1617    82.0158    2327(48)          2383.6033         2347.3081                                                                  
  1618    82.0658    2374(48)          2382.2410         2347.5447                                                                  
  1619    82.1158    2291(47)          2381.1072         2347.7815                                                                  
  1620    82.1658    2312(48)          2380.1699         2348.0183                                                                  
  1621    82.2158    2346(48)          2379.4045         2348.2551                                                                  
  1622    82.2658    2314(48)          2378.7915         2348.4917                                                                  
  1623    82.3158    2319(48)          2378.3159         2348.7285                                                                  
  1624    82.3658    2309(48)          2377.9646         2348.9653                                                                  
  1625    82.4158    2303(47)          2377.7271         2349.2021                                                                  
  1626    82.4658    2264(47)          2377.5955         2349.4390                                                                  
  1627    82.5158    2310(48)          2377.5627         2349.6755                                                                  
  1628    82.5658    2382(48)          2377.6245         2349.9124                                                                  
  1629    82.6158    2300(47)          2377.7766         2350.1492                                                                  
  1630    82.6658    2212(47)          2377.9858         2350.3860                                                                  
  1631    82.7158    2260(47)          2378.3125         2350.6226                                                                  
  1632    82.7658    2288(47)          2378.7251         2350.8594                                                                  
  1633    82.8158    2366(48)          2379.2246         2351.0962                                                                  
  1634    82.8658    2382(48)          2379.8120         2351.3330                                                                  
  1635    82.9158    2316(48)          2380.5046         2351.5696                                                                  
  1636    82.9658    2315(48)          2381.2771         2351.8064                                                                  
  1637    83.0158    2345(48)          2382.1487         2352.0432                                                                  
  1638    83.0658    2367(48)          2383.1216         2352.2769                                                                  
  1639    83.1158    2379(48)          2384.2063         2352.5098                                                                  
  1640    83.1658    2369(48)          2385.4119         2352.7427                                                                  
  1641    83.2158    2407(49)          2386.7488         2352.9756                                                                  
  1642    83.2658    2357(48)          2387.9541         2353.2085                                                                  
  1643    83.3158    2345(48)          2389.5950         2353.4412                                                                  
  1644    83.3658    2366(48)          2391.4121         2353.6741                                                                  
  1645    83.4158    2356(48)          2393.4255         2353.9070                                                                  
  1646    83.4658    2306(48)          2395.6599         2354.1399                                                                  
  1647    83.5158    2282(47)          2398.1443         2354.3728                                                                  
  1648    83.5658    2340(48)          2400.9124         2354.6057                                                                  
  1649    83.6158    2327(48)          2404.0066         2354.8386                                                                  
  1650    83.6658    2460(49)          2407.4753         2355.0713                                                                  
  1651    83.7158    2363(48)          2411.3823         2355.3042                                                                  
  1652    83.7658    2478(49)          2415.8059         2355.5371                                                                  
  1653    83.8158    2454(49)          2420.8533         2355.7700                                                                  
  1654    83.8658    2464(49)          2426.6904         2356.0029                                                                  
  1655    83.9158    2611(51)          2433.5962         2356.2358                                                                  
  1656    83.9658    2687(51)          2442.0613         2356.4688                                                                  
  1657    84.0158    2895(53)          2453.2024         2356.7017                                                                  
  1658    84.0658    3234(56)          2469.0437         2356.9343                                                                  
  1659    84.1158    3940(62)          2493.6106         2357.1672                                                                  
  1660    84.1658    5126(71)          2534.2595         2357.4001                                                                  
  1661    84.2158    6882(82)          2604.0615         2357.6331                                                                  
  1662    84.2658    9167(95)          2724.6582         2357.8660                                                                  
  1663    84.3158    11921(109)          2929.7827         2358.0989                                                                
  1664    84.3658    15035(122)          3268.7136         2358.3318                                                                
  1665    84.4158    17868(133)          3807.6067         2358.5645                                                                
  1666    84.4658    19801(140)          4627.3271         2358.7974                                                                
  1667    84.5158    21132(145)          5812.6465         2359.0303                                                                
  1668    84.5658    22126(148)          7431.0996         2359.2632                                                                
  1669    84.6158    23124(152)          9501.5996         2359.4961                                                                
  1670    84.6658    24325(155)         11954.5625         2359.7290                                                                
  1671    84.7158    24803(157)         14604.1885         2359.9619                                                                
  1672    84.7658    25512(159)         17142.1660         2360.1948                                                                
  1673    84.8158    25491(159)         19177.5762         2360.4275                                                                
  1674    84.8658    24919(157)         20323.5059         2360.6604                                                                
  1675    84.9158    23205(152)         20314.0449         2360.8933                                                                
  1676    84.9658    20790(144)         19117.8730         2361.1262                                                                
  1677    85.0158    17907(133)         16967.5469         2361.3591                                                                
  1678    85.0658    14758(121)         14267.4053         2361.5920                                                                
  1679    85.1158    11717(108)         11450.8516         2361.8250                                                                
  1680    85.1658    9117(95)          8873.9004         2362.0579                                                                  
  1681    85.2158    6777(82)          6754.2710         2362.2905                                                                  
  1682    85.2658    5056(71)          5166.9878         2362.5234                                                                  
  1683    85.3158    3925(62)          4075.1140         2362.7563                                                                  
  1684    85.3658    3243(56)          3379.2983         2362.9893                                                                  
  1685    85.4158    2853(53)          2965.2271         2363.2222                                                                  
  1686    85.4658    2625(51)          2732.2410         2363.4551                                                                  
  1687    85.5158    2484(49)          2606.1199         2363.6880                                                                  
  1688    85.5658    2419(49)          2538.5811         2363.9207                                                                  
  1689    85.6158    2316(48)          2501.3330         2364.1536                                                                  
  1690    85.6658    2447(49)          2479.2134         2364.3865                                                                  
  1691    85.7158    2432(49)          2464.6235         2364.6194                                                                  
  1692    85.7658    2359(48)          2453.9861         2364.8523                                                                  
  1693    85.8158    2306(48)          2445.5259         2365.0852                                                                  
  1694    85.8658    2284(47)          2438.5681         2365.3181                                                                  
  1695    85.9158    2293(47)          2432.6665         2365.5510                                                                  
  1696    85.9658    2322(48)          2427.5881         2365.7837                                                                  
  1697    86.0158    2197(46)          2423.1836         2366.0166                                                                  
  1698    86.0658    2303(47)          2419.3667         2366.2495                                                                  
  1699    86.1158    2327(48)          2416.0024         2366.4824                                                                  
  1700    86.1658    2350(48)          2413.0474         2366.7153                                                                  
  1701    86.2158    2380(48)          2410.4436         2366.9482                                                                  
  1702    86.2658    2376(48)          2408.1453         2367.1812                                                                  
  1703    86.3158    2336(48)          2406.1130         2367.4138                                                                  
  1704    86.3658    2307(48)          2404.3142         2367.6467                                                                  
  1705    86.4158    2319(48)          2402.7214         2367.8796                                                                  
  1706    86.4658    2226(47)          2401.3105         2368.1125                                                                  
  1707    86.5158    2280(47)          2400.0618         2368.3455                                                                  
  1708    86.5658    2254(47)          2398.9587         2368.5784                                                                  
  1709    86.6158    2231(47)          2397.9863         2368.8113                                                                  
  1710    86.6658    2311(48)          2397.1323         2369.0442                                                                  
  1711    86.7158    2194(46)          2396.4031         2369.2769                                                                  
  1712    86.7658    2293(47)          2395.7551         2369.5098                                                                  
  1713    86.8158    2382(48)          2395.1980         2369.7427                                                                  
  1714    86.8658    2285(47)          2394.6899         2369.9756                                                                  
  1715    86.9158    2271(47)          2394.2957         2370.2085                                                                  
  1716    86.9658    2269(47)          2393.9749         2370.4414                                                                  
  1717    87.0158    2262(47)          2393.7241         2370.6743                                                                  
  1718    87.0658    2278(47)          2393.5398         2370.9070                                                                  
  1719    87.1158    2324(48)          2393.4202         2371.1399                                                                  
  1720    87.1658    2260(47)          2393.3633         2371.3728                                                                  
  1721    87.2158    2287(47)          2393.3684         2371.6057                                                                  
  1722    87.2658    2277(47)          2393.4353         2371.8386                                                                  
  1723    87.3158    2293(47)          2393.5649         2372.0715                                                                  
  1724    87.3658    2276(47)          2393.7595         2372.3044                                                                  
  1725    87.4158    2299(47)          2394.0234         2372.5374                                                                  
  1726    87.4658    2317(48)          2394.3628         2372.7700                                                                  
  1727    87.5158    2271(47)          2394.7898         2373.0029                                                                  
  1728    87.5658    2262(47)          2395.3228         2373.2358                                                                  
  1729    87.6158    2357(48)          2395.9927         2373.4688                                                                  
  1730    87.6658    2337(48)          2396.8513         2373.7017                                                                  
  1731    87.7158    2350(48)          2397.9844         2373.9346                                                                  
  1732    87.7658    2491(49)          2399.5330         2374.1675                                                                  
  1733    87.8158    2616(51)          2401.7253         2374.4001                                                                  
  1734    87.8658    2671(51)          2404.9241         2374.6331                                                                  
  1735    87.9158    2885(53)          2409.6880         2374.8660                                                                  
  1736    87.9658    3018(54)          2416.8572         2375.0989                                                                  
  1737    88.0158    3090(55)          2427.6470         2375.3318                                                                  
  1738    88.0658    3325(57)          2443.7478         2375.5647                                                                  
  1739    88.1158    3509(59)          2467.4246         2375.7976                                                                  
  1740    88.1658    3596(59)          2501.5378         2376.0305                                                                  
  1741    88.2158    3710(60)          2549.5334         2376.2632                                                                  
  1742    88.2658    3875(62)          2615.2415         2376.4961                                                                  
  1743    88.3158    3871(62)          2702.5413         2376.7290                                                                  
  1744    88.3658    4127(64)          2814.9011         2376.9619                                                                  
  1745    88.4158    4266(65)          2954.6343         2377.1948                                                                  
  1746    88.4658    4570(67)          3122.1538         2377.4277                                                                  
  1747    88.5158    4661(68)          3315.3198         2377.6606                                                                  
  1748    88.5658    4940(70)          3528.8579         2377.8936                                                                  
  1749    88.6158    5285(72)          3754.3757         2378.1262                                                                  
  1750    88.6658    5415(73)          3980.5171         2378.3591                                                                  
  1751    88.7158    5461(73)          4194.1987         2378.5920                                                                  
  1752    88.7658    5476(74)          4381.9048         2378.8250                                                                  
  1753    88.8158    5445(73)          4531.7446         2379.0579                                                                  
  1754    88.8658    5430(73)          4635.5293         2379.2908                                                                  
  1755    88.9158    5263(72)          4690.2793         2379.5237                                                                  
  1756    88.9658    5214(72)          4699.1313         2379.7563                                                                  
  1757    89.0158    5155(71)          4670.7861         2379.9893                                                                  
  1758    89.0658    5080(71)          4617.9834         2380.2222                                                                  
  1759    89.1158    5146(71)          4555.3804         2380.4551                                                                  
  1760    89.1658    5305(72)          4497.5068         2380.6880                                                                  
  1761    89.2158    5360(73)          4456.7656         2380.9209                                                                  
  1762    89.2658    5388(73)          4441.8291         2381.1538                                                                  
  1763    89.3158    5584(74)          4456.3198         2381.3867                                                                  
  1764    89.3658    5815(76)          4498.1147         2381.6194                                                                  
  1765    89.4158    6063(77)          4559.3306         2381.8523                                                                  
  1766    89.4658    6212(78)          4627.1816         2382.0852                                                                  
  1767    89.5158    6126(78)          4685.5054         2382.3181                                                                  
  1768    89.5658    6023(77)          4717.0381         2382.5510                                                                  
  1769    89.6158    6071(77)          4706.1699         2382.7839                                                                  
  1770    89.6658    5819(76)          4641.9707         2383.0168                                                                  
  1771    89.7158    5377(73)          4520.7778         2383.2495                                                                  
  1772    89.7658    5084(71)          4347.2344         2383.4824                                                                  
  1773    89.8158    4635(68)          4132.9932         2383.7153                                                                  
  1774    89.8658    4230(65)          3893.7922         2383.9482                                                                  
  1775    89.9158    3890(62)          3646.6699         2384.1812                                                                  
  1776    89.9658    3606(60)          3407.1724         2384.4141                                                                  
  1777    90.0158    3226(56)          3187.8137         2384.6470                                                                  
  1778    90.0658    2849(53)          2997.0010         2384.8799                                                                  
  1779    90.1158    2693(51)          2838.7095         2385.1125                                                                  
  1780    90.1658    2613(51)          2713.2166         2385.3455                                                                  
  1781    90.2158    2492(49)          2617.8486         2385.5784                                                                  
  1782    90.2658    2528(50)          2548.2473         2385.8113                                                                  
  1783    90.3158    2427(49)          2499.3357         2386.0442                                                                  
  1784    90.3658    2315(48)          2466.1208         2386.2771                                                                  
  1785    90.4158    2333(48)          2444.2498         2386.5100                                                                  
  1786    90.4658    2319(48)          2430.2144         2386.7427                                                                  
  1787    90.5158    2290(47)          2421.3442         2386.9756                                                                  
  1788    90.5658    2290(47)          2415.7849         2387.2085                                                                  
  1789    90.6158    2258(47)          2412.2786         2387.4414                                                                  
  1790    90.6658    2321(48)          2410.0220         2387.6743                                                                  
  1791    90.7158    2303(47)          2408.5186         2387.9072                                                                  
  1792    90.7658    2361(48)          2407.4741         2388.1401                                                                  
  1793    90.8158    2290(47)          2406.7168         2388.3730                                                                  
  1794    90.8658    2316(48)          2406.1479         2388.6057                                                                  
  1795    90.9158    2257(47)          2405.7119         2388.8386                                                                  
  1796    90.9658    2336(48)          2405.3757         2389.0715                                                                  
  1797    91.0158    2423(49)          2405.1179         2389.3044                                                                  
  1798    91.0658    2375(48)          2404.9304         2389.5374                                                                  
  1799    91.1158    2354(48)          2404.7969         2389.7703                                                                  
  1800    91.1658    2350(48)          2404.7151         2390.0032                                                                  
  1801    91.2158    2332(48)          2404.6807         2390.2358                                                                  
  1802    91.2658    2368(48)          2404.6904         2390.4688                                                                  
  1803    91.3158    2332(48)          2404.7419         2390.7017                                                                  
  1804    91.3658    2325(48)          2404.8333         2390.9346                                                                  
  1805    91.4158    2334(48)          2404.9631         2391.1675                                                                  
  1806    91.4658    2371(48)          2405.1309         2391.4004                                                                  
  1807    91.5158    2344(48)          2405.3364         2391.6333                                                                  
  1808    91.5658    2373(48)          2405.5798         2391.8662                                                                  
  1809    91.6158    2456(49)          2405.8621         2392.0989                                                                  
  1810    91.6658    2395(48)          2406.1843         2392.3318                                                                  
  1811    91.7158    2284(47)          2406.5493         2392.5647                                                                  
  1812    91.7658    2342(48)          2406.9607         2392.7976                                                                  
  1813    91.8158    2329(48)          2407.4236         2393.0305                                                                  
  1814    91.8658    2369(48)          2407.9473         2393.2634                                                                  
  1815    91.9158    2385(48)          2408.5469         2393.4963                                                                  
  1816    91.9658    2424(49)          2409.2478         2393.7290                                                                  
  1817    92.0158    2516(50)          2410.0945         2393.9619                                                                  
  1818    92.0658    2640(51)          2411.1609         2394.1948                                                                  
  1819    92.1158    2718(52)          2412.5725         2394.4277                                                                  
  1820    92.1658    2897(53)          2414.5334         2394.6606                                                                  
  1821    92.2158    3194(56)          2417.3694         2394.8936                                                                  
  1822    92.2658    3580(59)          2421.5815         2395.1265                                                                  
  1823    92.3158    3999(63)          2427.9128         2395.3594                                                                  
  1824    92.3658    4374(66)          2437.4275         2395.5920                                                                  
  1825    92.4158    4770(69)          2451.5759         2395.8250                                                                  
  1826    92.4658    5245(72)          2472.2627         2396.0579                                                                  
  1827    92.5158    5601(74)          2501.8218         2396.2908                                                                  
  1828    92.5658    5873(76)          2542.9795         2396.5237                                                                  
  1829    92.6158    6134(78)          2598.6914         2396.7566                                                                  
  1830    92.6658    6260(79)          2671.8123         2396.9895                                                                  
  1831    92.7158    6263(79)          2764.7595         2397.2222                                                                  
  1832    92.7658    6240(78)          2878.9478         2397.4551                                                                  
  1833    92.8158    6361(79)          3014.2783         2397.6880                                                                  
  1834    92.8658    6096(78)          3168.7512         2397.9209                                                                  
  1835    92.9158    6260(79)          3338.0017         2398.1538                                                                  
  1836    92.9658    6022(77)          3515.4348         2398.3867                                                                  
  1837    93.0158    5995(77)          3692.3267         2398.6196                                                                  
  1838    93.0658    6007(77)          3858.5474         2398.8525                                                                  
  1839    93.1158    5914(76)          4003.6523         2399.0852                                                                  
  1840    93.1658    5902(76)          4118.0674         2399.3181                                                                  
  1841    93.2158    5659(75)          4194.7676         2399.5510                                                                  
  1842    93.2658    5434(73)          4230.4482         2399.7839                                                                  
  1843    93.3158    5379(73)          4226.2793         2400.0168                                                                  
  1844    93.3658    5307(72)          4187.7329         2400.2498                                                                  
  1845    93.4158    5313(72)          4123.7202         2400.4827                                                                  
  1846    93.4658    5324(72)          4045.1831         2400.7156                                                                  
  1847    93.5158    5320(72)          3963.5762         2400.9482                                                                  
  1848    93.5658    5297(72)          3889.2751         2401.1812                                                                  
  1849    93.6158    5482(74)          3830.1367         2401.4141                                                                  
  1850    93.6658    5663(75)          3790.4548         2401.6470                                                                  
  1851    93.7158    5684(75)          3770.2649         2401.8799                                                                  
  1852    93.7658    5779(76)          3765.2473         2402.1128                                                                  
  1853    93.8158    5693(75)          3767.4841         2402.3457                                                                  
  1854    93.8658    5607(74)          3766.6465         2402.5784                                                                  
  1855    93.9158    5383(73)          3751.8118         2402.8113                                                                  
  1856    93.9658    5159(71)          3713.6416         2403.0442                                                                  
  1857    94.0158    4900(70)          3646.5625         2403.2771                                                                  
  1858    94.0658    4566(67)          3550.2085         2403.5100                                                                  
  1859    94.1158    4110(64)          3429.2615         2403.7429                                                                  
  1860    94.1658    3704(60)          3292.0049         2403.9758                                                                  
  1861    94.2158    3453(58)          3148.3267         2404.2087                                                                  
  1862    94.2658    3193(56)          3007.7451         2404.4414                                                                  
  1863    94.3158    2999(54)          2878.1978         2404.6743                                                                  
  1864    94.3658    2891(53)          2765.1272         2404.9072                                                                  
  1865    94.4158    2726(52)          2671.3635         2405.1401                                                                  
  1866    94.4658    2589(50)          2597.2297         2405.3730                                                                  
  1867    94.5158    2669(51)          2541.2251         2405.6060                                                                  
  1868    94.5658    2478(49)          2500.6931         2405.8389                                                                  
  1869    94.6158    2404(49)          2472.4968         2406.0715                                                                  
  1870    94.6658    2385(48)          2453.5879         2406.3044                                                                  
  1871    94.7158    2360(48)          2441.2988         2406.5374                                                                  
  1872    94.7658    2362(48)          2433.5127         2406.7703                                                                  
  1873    94.8158    2333(48)          2428.6602         2407.0032                                                                  
  1874    94.8658    2417(49)          2425.7959         2407.2361                                                                  
  1875    94.9158    2306(48)          2423.9045         2407.4690                                                                  
  1876    94.9658    2259(47)          2422.6826         2407.7019                                                                  
  1877    95.0158    2396(48)          2421.8584         2407.9346                                                                  
  1878    95.0658    2382(48)          2421.2749         2408.1675                                                                  
  1879    95.1158    2392(48)          2420.8418         2408.4004                                                                  
  1880    95.1658    2342(48)          2420.5090         2408.6333                                                                  
  1881    95.2158    2278(47)          2420.2056         2408.8662                                                                  
  1882    95.2658    2382(48)          2419.9995         2409.0991                                                                  
  1883    95.3158    2447(49)          2419.8381         2409.3320                                                                  
  1884    95.3658    2371(48)          2419.7139         2409.5649                                                                  
  1885    95.4158    2317(48)          2419.6221         2409.7976                                                                  
  1886    95.4658    2366(48)          2419.5588         2410.0305                                                                  
  1887    95.5158    2349(48)          2419.5210         2410.2634                                                                  
  1888    95.5658    2307(48)          2419.5164         2410.4963                                                                  
  1889    95.6158    2234(47)          2419.5217         2410.7292                                                                  
  1890    95.6658    2271(47)          2419.5454         2410.9622                                                                  
  1891    95.7158    2318(48)          2419.5859         2411.1951                                                                  
  1892    95.7658    2335(48)          2419.6411         2411.4277                                                                  
  1893    95.8158    2392(48)          2419.7107         2411.6606                                                                  
  1894    95.8658    2424(49)          2419.7930         2411.8936                                                                  
  1895    95.9158    2372(48)          2419.8870         2412.1265                                                                  
  1896    95.9658    2255(47)          2419.9917         2412.3594                                                                  
  1897    96.0158    2329(48)          2420.1064         2412.5923                                                                  
  1898    96.0658    2363(48)          2420.2305         2412.8252                                                                  
  1899    96.1158    2379(48)          2420.3630         2413.0581                                                                  
  1900    96.1658    2307(48)          2420.5032         2413.2908                                                                  
  1901    96.2158    2399(48)          2420.6511         2413.5237                                                                  
  1902    96.2658    2315(48)          2420.8059         2413.7566                                                                  
  1903    96.3158    2330(48)          2420.9675         2413.9895                                                                  
  1904    96.3658    2327(48)          2421.1350         2414.2224                                                                  
  1905    96.4158    2376(48)          2421.3083         2414.4553                                                                  
  1906    96.4658    2353(48)          2421.4873         2414.6882                                                                  
  1907    96.5158    2356(48)          2421.6711         2414.9209                                                                  
  1908    96.5658    2293(47)          2422.2688         2415.5623                                                                  
  1909    96.6158    2359(48)          2422.9485         2416.2812                                                                  
  1910    96.6658    2353(48)          2423.6328         2417.0000                                                                  
  1911    96.7158    2367(48)          2424.3213         2417.7190                                                                  
  1912    96.7658    2396(48)          2425.0142         2418.4380                                                                  
  1913    96.8158    2388(48)          2425.7112         2419.1570                                                                  
  1914    96.8658    2290(47)          2426.4119         2419.8760                                                                  
  1915    96.9158    2356(48)          2427.1162         2420.5950                                                                  
  1916    96.9658    2312(48)          2427.8245         2421.3140                                                                  
  1917    97.0158    2350(48)          2428.5361         2422.0330                                                                  
  1918    97.0658    2330(48)          2429.2512         2422.7520                                                                  
  1919    97.1158    2393(48)          2429.9695         2423.4709                                                                  
  1920    97.1658    2365(48)          2430.6912         2424.1897                                                                  
  1921    97.2158    2421(49)          2431.4163         2424.9087                                                                  
  1922    97.2658    2359(48)          2432.1638         2425.6277                                                                  
  1923    97.3158    2355(48)          2432.8953         2426.3467                                                                  
  1924    97.3658    2371(48)          2433.6299         2427.0657                                                                  
  1925    97.4158    2404(49)          2434.4001         2427.7847                                                                  
  1926    97.4658    2384(48)          2435.1414         2428.5037                                                                  
  1927    97.5158    2314(48)          2435.8857         2429.2227                                                                  
  1928    97.5658    2339(48)          2436.4075         2429.9414                                                                  
  1929    97.6158    2317(48)          2437.1599         2430.6604                                                                  
  1930    97.6658    2371(48)          2437.9155         2431.3794                                                                  
  1931    97.7158    2403(49)          2438.6743         2432.0984                                                                  
  1932    97.7658    2445(49)          2439.4363         2432.8174                                                                  
  1933    97.8158    2371(48)          2440.2017         2433.5364                                                                  
  1934    97.8658    2361(48)          2440.9702         2434.2554                                                                  
  1935    97.9158    2423(49)          2441.7419         2434.9741                                                                  
  1936    97.9658    2354(48)          2442.5176         2435.6931                                                                  
  1937    98.0158    2319(48)          2443.2969         2436.4124                                                                  
  1938    98.0658    2470(49)          2444.0735         2437.1311                                                                  
  1939    98.1158    2276(47)          2444.8599         2437.8501                                                                  
  1940    98.1658    2328(48)          2445.6504         2438.5691                                                                  
  1941    98.2158    2337(48)          2446.4446         2439.2881                                                                  
  1942    98.2658    2368(48)          2447.2429         2440.0071                                                                  
  1943    98.3158    2425(49)          2448.0457         2440.7261                                                                  
  1944    98.3658    2467(49)          2448.8525         2441.4451                                                                  
  1945    98.4158    2337(48)          2449.6641         2442.1638                                                                  
  1946    98.4658    2262(47)          2450.4807         2442.8828                                                                  
  1947    98.5158    2302(47)          2451.3022         2443.6018                                                                  
  1948    98.5658    2357(48)          2452.1292         2444.3208                                                                  
  1949    98.6158    2375(48)          2452.9619         2445.0398                                                                  
  1950    98.6658    2373(48)          2453.8008         2445.7588                                                                  
  1951    98.7158    2379(48)          2454.6462         2446.4778                                                                  
  1952    98.7658    2344(48)          2455.4990         2447.1968                                                                  
  1953    98.8158    2368(48)          2456.3599         2447.9155                                                                  
  1954    98.8658    2370(48)          2457.2300         2448.6345                                                                  
  1955    98.9158    2386(48)          2458.1106         2449.3535                                                                  
  1956    98.9658    2351(48)          2459.0588         2450.0725                                                                  
  1957    99.0158    2254(47)          2459.9668         2450.7915                                                                  
  1958    99.0658    2331(48)          2460.8923         2451.5105                                                                  
  1959    99.1158    2426(49)          2461.8398         2452.2295                                                                  
  1960    99.1658    2366(48)          2462.8140         2452.9482                                                                  
  1961    99.2158    2338(48)          2463.8225         2453.6675                                                                  
  1962    99.2658    2350(48)          2464.8738         2454.3865                                                                  
  1963    99.3158    2383(48)          2465.9792         2455.1052                                                                  
  1964    99.3658    2426(49)          2467.1543         2455.8242                                                                  
  1965    99.4158    2441(49)          2468.4177         2456.5432                                                                  
  1966    99.4658    2418(49)          2469.7942         2457.2622                                                                  
  1967    99.5158    2406(49)          2471.3140         2457.9812                                                                  
  1968    99.5658    2467(49)          2473.0154         2458.7002                                                                  
  1969    99.6158    2413(49)          2474.9463         2459.4192                                                                  
  1970    99.6658    2446(49)          2477.1653         2460.1379                                                                  
  1971    99.7158    2453(49)          2479.7449         2460.8569                                                                  
  1972    99.7658    2528(50)          2482.7725         2461.5759                                                                  
  1973    99.8158    2398(48)          2486.3521         2462.2949                                                                  
  1974    99.8658    2477(49)          2490.4619         2463.0139                                                                  
  1975    99.9158    2539(50)          2495.5454         2463.7329                                                                  
  1976    99.9658    2568(50)          2501.6272         2464.4519                                                                  
  1977   100.0158    2571(50)          2508.9065         2465.1709                                                                  
  1978   100.0658    2644(51)          2517.6362         2465.8896                                                                  
  1979   100.1158    2610(51)          2528.0251         2466.6086                                                                  
  1980   100.1658    2647(51)          2540.3840         2467.3276                                                                  
  1981   100.2158    2755(52)          2555.0388         2468.0466                                                                  
  1982   100.2658    2971(54)          2572.3345         2468.7656                                                                  
  1983   100.3158    3016(54)          2592.6416         2469.4846                                                                  
  1984   100.3658    3174(56)          2616.3616         2470.2036                                                                  
  1985   100.4158    3338(57)          2643.8979         2470.9224                                                                  
  1986   100.4658    3474(58)          2675.6768         2471.6416                                                                  
  1987   100.5158    3856(62)          2712.1089         2472.3606                                                                  
  1988   100.5658    4171(64)          2753.5894         2473.0793                                                                  
  1989   100.6158    4435(66)          2800.5000         2473.7983                                                                  
  1990   100.6658    4747(68)          2853.1560         2474.5173                                                                  
  1991   100.7158    5144(71)          2911.8425         2475.2363                                                                  
  1992   100.7658    5187(72)          2976.7429         2475.9553                                                                  
  1993   100.8158    5667(75)          3047.9426         2476.6743                                                                  
  1994   100.8658    5745(75)          3125.4487         2477.3933                                                                  
  1995   100.9158    5917(76)          3209.0955         2478.1121                                                                  
  1996   100.9658    6000(77)          3298.6248         2478.8311                                                                  
  1997   101.0158    5842(76)          3393.5889         2479.5500                                                                  
  1998   101.0658    5944(77)          3493.3752         2480.2690                                                                  
  1999   101.1158    5687(75)          3597.2593         2480.9880                                                                  
  2000   101.1658    5517(74)          3704.2812         2481.7070                                                                  
  2001   101.2158    5522(74)          3813.4019         2482.4260                                                                  
  2002   101.2658    5407(73)          3923.3853         2483.1450                                                                  
  2003   101.3158    5307(72)          4032.8694         2483.8638                                                                  
  2004   101.3658    5212(72)          4140.4434         2484.5830                                                                  
  2005   101.4158    5137(71)          4244.5527         2485.3018                                                                  
  2006   101.4658    5108(71)          4343.6665         2486.0208                                                                  
  2007   101.5158    5152(71)          4436.2021         2486.7397                                                                  
  2008   101.5658    5285(72)          4520.6138         2487.4587                                                                  
  2009   101.6158    5409(73)          4595.4668         2488.1777                                                                  
  2010   101.6658    5416(73)          4659.4033         2488.8965                                                                  
  2011   101.7158    5541(74)          4711.2617         2489.6157                                                                  
  2012   101.7658    5718(75)          4750.0537         2490.3347                                                                  
  2013   101.8158    5608(74)          4775.0386         2491.0535                                                                  
  2014   101.8658    5885(76)          4785.7539         2491.7725                                                                  
  2015   101.9158    5824(76)          4782.0083         2492.4915                                                                  
  2016   101.9658    5780(76)          4763.9131         2493.2104                                                                  
  2017   102.0158    5634(75)          4731.8696         2493.9294                                                                  
  2018   102.0658    5426(73)          4686.5625         2494.6484                                                                  
  2019   102.1158    5470(73)          4628.9067         2495.3674                                                                  
  2020   102.1658    5170(71)          4560.0625         2496.0862                                                                  
  2021   102.2158    5191(72)          4481.3442         2496.8052                                                                  
  2022   102.2658    4899(69)          4394.2451         2497.5242                                                                  
  2023   102.3158    4707(68)          4300.3970         2498.2432                                                                  
  2024   102.3658    4446(66)          4201.5142         2498.9622                                                                  
  2025   102.4158    4303(65)          4099.5225         2499.6812                                                                  
  2026   102.4658    4269(65)          3996.4958         2500.4001                                                                  
  2027   102.5158    4009(63)          3894.9082         2501.1191                                                                  
  2028   102.5658    3796(61)          3797.7268         2501.8379                                                                  
  2029   102.6158    3674(60)          3708.6255         2502.5571                                                                  
  2030   102.6658    3491(59)          3632.3237         2503.2759                                                                  
  2031   102.7158    3380(58)          3574.6763         2503.9949                                                                  
  2032   102.7658    3394(58)          3542.7944         2504.7139                                                                  
  2033   102.8158    3342(57)          3544.7278         2505.4329                                                                  
  2034   102.8658    3341(57)          3588.7886         2506.1519                                                                  
  2035   102.9158    3474(58)          3682.3428         2506.8708                                                                  
  2036   102.9658    3661(60)          3830.2224         2507.5898                                                                  
  2037   103.0158    3926(62)          4032.7490         2508.3088                                                                  
  2038   103.0658    4315(65)          4283.9863         2509.0276                                                                  
  2039   103.1158    4862(69)          4570.7402         2509.7466                                                                  
  2040   103.1658    5589(74)          4872.1841         2510.4656                                                                  
  2041   103.2158    6502(80)          5161.4072         2511.1846                                                                  
  2042   103.2658    7354(85)          5407.7036         2511.9036                                                                  
  2043   103.3158    8267(90)          5580.7061         2512.6226                                                                  
  2044   103.3658    8654(93)          5655.6641         2513.3416                                                                  
  2045   103.4158    8855(94)          5618.9756         2514.0603                                                                  
  2046   103.4658    8666(93)          5472.0176         2514.7793                                                                  
  2047   103.5158    8231(90)          5230.6064         2515.4983                                                                  
  2048   103.5658    7838(88)          4920.6147         2516.2173                                                                  
  2049   103.6158    7067(84)          4572.0498         2516.9363                                                                  
  2050   103.6658    6436(80)          4214.4512         2517.6553                                                                  
  2051   103.7158    5865(76)          3872.8499         2518.3743                                                                  
  2052   103.7658    4887(69)          3565.8826         2519.0933                                                                  
  2053   103.8158    4360(66)          3304.7197         2519.8120                                                                  
  2054   103.8658    3728(61)          3093.3652         2520.5312                                                                  
  2055   103.9158    3389(58)          2930.2568         2521.2500                                                                  
  2056   103.9658    3101(55)          2809.8584         2521.9690                                                                  
  2057   104.0158    2877(53)          2724.7188         2522.6880                                                                  
  2058   104.0658    2711(52)          2666.9380         2523.4070                                                                  
  2059   104.1158    2662(51)          2629.2439         2524.1260                                                                  
  2060   104.1658    2604(51)          2605.6299         2524.8450                                                                  
  2061   104.2158    2644(51)          2591.4819         2525.5640                                                                  
  2062   104.2658    2580(50)          2583.5176         2526.2830                                                                  
  2063   104.3158    2570(50)          2579.5398         2527.0017                                                                  
  2064   104.3658    2625(51)          2578.1414         2527.7207                                                                  
  2065   104.4158    2595(50)          2578.5803         2528.4397                                                                  
  2066   104.4658    2574(50)          2580.4048         2529.1587                                                                  
  2067   104.5158    2573(50)          2583.4329         2529.8777                                                                  
  2068   104.5658    2660(51)          2587.6301         2530.5967                                                                  
  2069   104.6158    2800(52)          2593.0554         2531.3157                                                                  
  2070   104.6658    2792(52)          2599.8228         2532.0344                                                                  
  2071   104.7158    2861(53)          2608.0894         2532.7534                                                                  
  2072   104.7658    2825(53)          2618.0381         2533.4727                                                                  
  2073   104.8158    2940(54)          2629.8430         2534.1914                                                                  
  2074   104.8658    2884(53)          2643.7891         2534.9104                                                                  
  2075   104.9158    3209(56)          2660.0776         2535.6294                                                                  
  2076   104.9658    3312(57)          2678.9551         2536.3484                                                                  
  2077   105.0158    3361(57)          2700.6611         2537.0674                                                                  
  2078   105.0658    3671(60)          2725.4287         2537.7864                                                                  
  2079   105.1158    3732(61)          2753.4883         2538.5054                                                                  
  2080   105.1658    3971(63)          2785.0327         2539.2241                                                                  
  2081   105.2158    4196(64)          2820.2446         2539.9431                                                                  
  2082   105.2658    4356(66)          2859.2554         2540.6621                                                                  
  2083   105.3158    4437(66)          2902.1519         2541.3811                                                                  
  2084   105.3658    4638(68)          2948.9946         2542.1001                                                                  
  2085   105.4158    4652(68)          2999.7725         2542.8191                                                                  
  2086   105.4658    4669(68)          3054.4639         2543.5381                                                                  
  2087   105.5158    4898(69)          3112.9988         2544.2571                                                                  
  2088   105.5658    4924(70)          3175.2993         2544.9758                                                                  
  2089   105.6158    5053(71)          3241.3440         2545.6948                                                                  
  2090   105.6658    5214(72)          3311.1411         2546.4138                                                                  
  2091   105.7158    5294(72)          3384.8621         2547.1328                                                                  
  2092   105.7658    5498(74)          3462.8276         2547.8518                                                                  
  2093   105.8158    5628(75)          3545.6011         2548.5708                                                                  
  2094   105.8658    5818(76)          3634.0828         2549.2898                                                                  
  2095   105.9158    5844(76)          3729.4563         2550.0085                                                                  
  2096   105.9658    6051(77)          3833.3022         2550.7275                                                                  
  2097   106.0158    6226(78)          3947.4438         2551.4468                                                                  
  2098   106.0658    6178(78)          4073.8613         2552.1655                                                                  
  2099   106.1158    6372(79)          4214.5527         2552.8845                                                                  
  2100   106.1658    6601(81)          4371.0977         2553.6035                                                                  
  2101   106.2158    6706(81)          4544.4673         2554.3225                                                                  
  2102   106.2658    6774(82)          4734.4668         2555.0415                                                                  
  2103   106.3158    6980(83)          4939.4111         2555.7605                                                                  
  2104   106.3658    7101(84)          5155.9512         2556.4795                                                                  
  2105   106.4158    7280(85)          5378.7314         2557.1982                                                                  
  2106   106.4658    7437(86)          5600.7773         2557.9172                                                                  
  2107   106.5158    7521(86)          5813.6484         2558.6362                                                                  
  2108   106.5658    7804(88)          6008.2231         2559.3552                                                                  
  2109   106.6158    7823(88)          6175.6738         2560.0742                                                                  
  2110   106.6658    7876(88)          6308.2910         2560.7932                                                                  
  2111   106.7158    7836(88)          6400.6963         2561.5122                                                                  
  2112   106.7658    7788(88)          6450.4834         2562.2312                                                                  
  2113   106.8158    7546(86)          6458.6797         2562.9500                                                                  
  2114   106.8658    7558(86)          6428.8540         2563.6689                                                                  
  2115   106.9158    7547(86)          6366.3306         2564.3879                                                                  
  2116   106.9658    7209(84)          6276.1699         2565.1069                                                                  
  2117   107.0158    7006(83)          6162.0112         2565.8259                                                                  
  2118   107.0658    6809(82)          6025.6104         2566.5449                                                                  
  2119   107.1158    6404(80)          5867.2026         2567.2639                                                                  
  2120   107.1658    6307(79)          5687.0044         2567.9827                                                                  
  2121   107.2158    5662(75)          5486.9131         2568.7017                                                                  
  2122   107.2658    5306(72)          5272.6191         2569.4209                                                                  
  2123   107.3158    5083(71)          5054.1538         2570.1396                                                                  
  2124   107.3658    4717(68)          4844.6611         2570.8586                                                                  
  2125   107.4158    4596(67)          4658.0439         2571.5776                                                                  
  2126   107.4658    4487(66)          4506.0083         2572.2966                                                                  
  2127   107.5158    4538(67)          4396.1250         2573.0156                                                                  
  2128   107.5658    4524(67)          4330.3525         2573.7346                                                                  
  2129   107.6158    4886(69)          4304.5332         2574.4536                                                                  
  2130   107.6658    5287(72)          4308.8945         2575.1724                                                                  
  2131   107.7158    5537(74)          4329.3398         2575.8914                                                                  
  2132   107.7658    5835(76)          4349.4810         2576.6104                                                                  
  2133   107.8158    6069(77)          4353.1396         2577.3293                                                                  
  2134   107.8658    6148(78)          4327.2095         2578.0483                                                                  
  2135   107.9158    5914(76)          4263.9062         2578.7673                                                                  
  2136   107.9658    5778(76)          4162.0132         2579.4863                                                                  
  2137   108.0158    5689(75)          4026.3508         2580.2053                                                                  
  2138   108.0658    5246(72)          3865.9385         2580.9241                                                                  
  2139   108.1158    5046(71)          3691.7454         2581.6431                                                                  
  2140   108.1658    4730(68)          3514.9985         2582.3621                                                                  
  2141   108.2158    4330(65)          3345.5466         2583.0811                                                                  
  2142   108.2658    3914(62)          3191.1316         2583.8000                                                                  
  2143   108.3158    3422(58)          3056.7795         2584.5190                                                                  
  2144   108.3658    3112(55)          2944.7732         2585.2380                                                                  
  2145   108.4158    3050(55)          2855.1414         2585.9570                                                                  
  2146   108.4658    2839(53)          2786.1086         2586.6760                                                                  
  2147   108.5158    2885(53)          2734.8708         2587.3950                                                                  
  2148   108.5658    2661(51)          2698.1560         2588.1138                                                                  
  2149   108.6158    2684(51)          2672.7065         2588.8328                                                                  
  2150   108.6658    2514(50)          2655.6301         2589.5518                                                                  
  2151   108.7158    2641(51)          2644.5308         2590.2708                                                                  
  2152   108.7658    2628(51)          2637.5664         2590.9897                                                                  
  2153   108.8158    2572(50)          2633.3970         2591.7087                                                                  
  2154   108.8658    2635(51)          2631.0994         2592.4277                                                                  
  2155   108.9158    2658(51)          2630.0747         2593.1465                                                                  
  2156   108.9658    2632(51)          2629.9570         2593.8655                                                                  
  2157   109.0158    2653(51)          2630.5415         2594.5845                                                                  
  2158   109.0658    2642(51)          2631.7290         2595.3035                                                                  
  2159   109.1158    2780(52)          2633.4905         2596.0225                                                                  
  2160   109.1658    2819(53)          2635.8403         2596.7415                                                                  
  2161   109.2158    2973(54)          2638.8242         2597.4604                                                                  
  2162   109.2658    2920(54)          2642.5068         2598.1794                                                                  
  2163   109.3158    2970(54)          2646.9683         2598.8982                                                                  
  2164   109.3658    3099(55)          2652.3018         2599.6172                                                                  
  2165   109.4158    3281(57)          2658.6072         2600.3362                                                                  
  2166   109.4658    3409(58)          2665.9946         2601.0552                                                                  
  2167   109.5158    3678(60)          2674.5762         2601.7742                                                                  
  2168   109.5658    3810(61)          2684.4653         2602.4932                                                                  
  2169   109.6158    3984(63)          2695.7791         2603.2122                                                                  
  2170   109.6658    4118(64)          2708.6250         2603.9312                                                                  
  2171   109.7158    4192(64)          2723.1096         2604.6501                                                                  
  2172   109.7658    4348(65)          2739.3240         2605.3691                                                                  
  2173   109.8158    4701(68)          2757.3445         2606.0879                                                                  
  2174   109.8658    4862(69)          2777.2400         2606.8069                                                                  
  2175   109.9158    4858(69)          2799.0505         2607.5259                                                                  
  2176   109.9658    4806(69)          2822.8096         2608.2449                                                                  
  2177   110.0158    4735(68)          2848.5251         2608.9639                                                                  
  2178   110.0658    4813(69)          2876.1882         2609.6829                                                                  
  2179   110.1158    4766(69)          2905.7927         2610.4019                                                                  
  2180   110.1658    4724(68)          2937.3081         2611.1206                                                                  
  2181   110.2158    4666(68)          2970.7231         2611.8396                                                                  
  2182   110.2658    4445(66)          3006.0161         2612.5586                                                                  
  2183   110.3158    4541(67)          3043.1704         2613.2776                                                                  
  2184   110.3658    4363(66)          3082.1868         2613.9966                                                                  
  2185   110.4158    4276(65)          3123.0271         2614.7156                                                                  
  2186   110.4658    4309(65)          3165.6282         2615.4346                                                                  
  2187   110.5158    4349(65)          3209.8083         2616.1536                                                                  
  2188   110.5658    4141(64)          3255.2158         2616.8726                                                                  
  2189   110.6158    4246(65)          3301.2791         2617.5916                                                                  
  2190   110.6658    4280(65)          3347.0950         2618.3103                                                                  
  2191   110.7158    4319(65)          3391.4600         2619.0293                                                                  
  2192   110.7658    4306(65)          3432.8916         2619.7483                                                                  
  2193   110.8158    4251(65)          3469.7295         2620.4673                                                                  
  2194   110.8658    4360(66)          3500.3564         2621.1863                                                                  
  2195   110.9158    4338(65)          3523.3765         2621.9053                                                                  
  2196   110.9658    4469(66)          3537.9077         2622.6243                                                                  
  2197   111.0158    4476(66)          3543.8157         2623.3433                                                                  
  2198   111.0658    4583(67)          3541.8320         2624.0620                                                                  
  2199   111.1158    4469(66)          3533.3804         2624.7810                                                                  
  2200   111.1658    4532(67)          3520.2300         2625.5000                                                                  
  2201   111.2158    4410(66)          3504.1411         2626.2190                                                                  
  2202   111.2658    4285(65)          3486.6233         2626.9380                                                                  
  2203   111.3158    4338(65)          3468.7810         2627.6570                                                                  
  2204   111.3658    4215(64)          3451.2424         2628.3760                                                                  
  2205   111.4158    4206(64)          3434.2083         2629.0947                                                                  
  2206   111.4658    4113(64)          3417.5256         2629.8137                                                                  
  2207   111.5158    3924(62)          3400.8416         2630.5327                                                                  
  2208   111.5658    3929(62)          3383.7456         2631.2517                                                                  
  2209   111.6158    3803(61)          3365.8931         2631.9707                                                                  
  2210   111.6658    3822(61)          3347.1318         2632.6897                                                                  
  2211   111.7158    3722(61)          3327.5493         2633.4087                                                                  
  2212   111.7658    3654(60)          3307.5251         2634.1277                                                                  
  2213   111.8158    3584(59)          3287.7107         2634.8467                                                                  
  2214   111.8658    3556(59)          3268.9641         2635.5657                                                                  
  2215   111.9158    3430(58)          3252.2715         2636.2844                                                                  
  2216   111.9658    3482(59)          3238.5828         2637.0034                                                                  
  2217   112.0158    3383(58)          3228.6665         2637.7224                                                                  
  2218   112.0658    3488(59)          3222.9241         2638.4414                                                                  
  2219   112.1158    3573(59)          3221.2695         2639.1604                                                                  
  2220   112.1658    3595(59)          3223.0054         2639.8794                                                                  
  2221   112.2158    3858(62)          3226.8218         2640.5984                                                                  
  2222   112.2658    3745(61)          3230.8533         2641.3174                                                                  
  2223   112.3158    3915(62)          3232.8228         2642.0361                                                                  
  2224   112.3658    4044(63)          3230.3286         2642.7551                                                                  
  2225   112.4158    4038(63)          3221.1074         2643.4741                                                                  
  2226   112.4658    3922(62)          3203.4744         2644.1931                                                                  
  2227   112.5158    3931(62)          3176.6953         2644.9121                                                                  
  2228   112.5658    3829(61)          3141.1851         2645.6311                                                                  
  2229   112.6158    3740(61)          3098.3950         2646.3501                                                                  
  2230   112.6658    3821(61)          3050.5295         2647.0688                                                                  
  2231   112.7158    3607(60)          3000.1042         2647.7881                                                                  
  2232   112.7658    3476(58)          2949.6440         2648.5071                                                                  
  2233   112.8158    3302(57)          2901.3999         2649.2258                                                                  
  2234   112.8658    3100(55)          2857.1423         2649.9448                                                                  
  2235   112.9158    3074(55)          2818.1104         2650.6638                                                                  
  2236   112.9658    2931(54)          2784.9377         2651.3828                                                                  
  2237   113.0158    2896(53)          2757.7505         2652.1018                                                                  
  2238   113.0658    2850(53)          2736.2463         2652.8208                                                                  
  2239   113.1158    2647(51)          2719.8198         2653.5398                                                                  
  2240   113.1658    2636(51)          2707.7151         2654.2585                                                                  
  2241   113.2158    2634(51)          2699.1196         2654.9775                                                                  
  2242   113.2658    2631(51)          2693.2649         2655.6965                                                                  
  2243   113.3158    2656(51)          2689.4724         2656.4155                                                                  
  2244   113.3658    2620(51)          2687.1799         2657.1345                                                                  
  2245   113.4158    2647(51)          2685.9502         2657.8535                                                                  
  2246   113.4658    2652(51)          2685.4548         2658.5725                                                                  
  2247   113.5158    2624(51)          2685.4429         2659.2915                                                                  
  2248   113.5658    2641(51)          2685.7869         2660.0103                                                                  
  2249   113.6158    2683(51)          2686.3628         2660.7292                                                                  
  2250   113.6658    2603(51)          2687.1018         2661.4482                                                                  
  2251   113.7158    2633(51)          2687.9609         2662.1672                                                                  
  2252   113.7658    2604(51)          2688.9143         2662.8862                                                                  
  2253   113.8158    2708(52)          2689.9473         2663.6052                                                                  
  2254   113.8658    2620(51)          2691.0515         2664.3242                                                                  
  2255   113.9158    2756(52)          2692.2236         2665.0430                                                                  
  2256   113.9658    2804(52)          2693.4641         2665.7622                                                                  
  2257   114.0158    2811(53)          2694.7739         2666.4812                                                                  
  2258   114.0658    2831(53)          2696.1570         2667.2000                                                                  
  2259   114.1158    2871(53)          2697.6199         2667.9189                                                                  
  2260   114.1658    3110(55)          2699.1714         2668.6379                                                                  
  2261   114.2158    3287(57)          2700.8262         2669.3569                                                                  
  2262   114.2658    3501(59)          2702.6057         2670.0759                                                                  
  2263   114.3158    3842(61)          2704.5435         2670.7949                                                                  
  2264   114.3658    4195(64)          2706.6941         2671.5139                                                                  
  2265   114.4158    4542(67)          2709.1418         2672.2327                                                                  
  2266   114.4658    5002(70)          2712.0212         2672.9517                                                                  
  2267   114.5158    5452(73)          2715.5378         2673.6707                                                                  
  2268   114.5658    5678(75)          2719.9998         2674.3896                                                                  
  2269   114.6158    5890(76)          2725.8618         2675.1086                                                                  
  2270   114.6658    6006(77)          2733.7661         2675.8276                                                                  
  2271   114.7158    5923(76)          2744.6040         2676.5466                                                                  
  2272   114.7658    5825(76)          2759.5605         2677.2656                                                                  
  2273   114.8158    5607(74)          2780.1609         2677.9844                                                                  
  2274   114.8658    5552(74)          2808.3145         2678.7036                                                                  
  2275   114.9158    5280(72)          2846.2915         2679.4224                                                                  
  2276   114.9658    5276(72)          2896.7310         2680.1414                                                                  
  2277   115.0158    4906(70)          2962.5229         2680.8604                                                                  
  2278   115.0658    4735(68)          3046.6814         2681.5793                                                                  
  2279   115.1158    4561(67)          3152.1921         2682.2983                                                                  
  2280   115.1658    4500(67)          3281.6379         2683.0171                                                                  
  2281   115.2158    4471(66)          3436.9714         2683.7363                                                                  
  2282   115.2658    4748(68)          3618.9492         2684.4553                                                                  
  2283   115.3158    4824(69)          3826.6865         2685.1741                                                                  
  2284   115.3658    5148(71)          4057.2817         2685.8931                                                                  
  2285   115.4158    5558(74)          4305.1973         2686.6121                                                                  
  2286   115.4658    5993(77)          4562.3955         2687.3311                                                                  
  2287   115.5158    6530(80)          4818.3545         2688.0500                                                                  
  2288   115.5658    6842(82)          5060.9810         2688.7690                                                                  
  2289   115.6158    7124(84)          5278.0205         2689.4880                                                                  
  2290   115.6658    7601(87)          5458.3188         2690.2068                                                                  
  2291   115.7158    7979(89)          5593.6152         2690.9258                                                                  
  2292   115.7658    8173(90)          5679.8442         2691.6448                                                                  
  2293   115.8158    8359(91)          5718.6108         2692.3638                                                                  
  2294   115.8658    8616(92)          5717.5615         2693.0828                                                                  
  2295   115.9158    8942(94)          5689.0195         2693.8018                                                                  
  2296   115.9658    8944(94)          5647.3594         2694.5208                                                                  
  2297   116.0158    8984(94)          5606.3232         2695.2397                                                                  
  2298   116.0658    8992(94)          5576.9609         2695.9585                                                                  
  2299   116.1158    8893(94)          5566.3818         2696.6777                                                                  
  2300   116.1658    8949(94)          5577.2451         2697.3965                                                                  
  2301   116.2158    8648(92)          5607.8828         2698.1155                                                                  
  2302   116.2658    8515(92)          5652.9824         2698.8345                                                                  
  2303   116.3158    8159(90)          5704.6426         2699.5535                                                                  
  2304   116.3658    8006(89)          5753.7280         2700.2725                                                                  
  2305   116.4158    7791(88)          5790.9844         2700.9912                                                                  
  2306   116.4658    7604(87)          5808.2178         2701.7104                                                                  
  2307   116.5158    7408(86)          5799.0283         2702.4294                                                                  
  2308   116.5658    7180(84)          5759.3252         2703.1482                                                                  
  2309   116.6158    6728(82)          5687.4248         2703.8672                                                                  
  2310   116.6658    6437(80)          5583.9678         2704.5862                                                                  
  2311   116.7158    6064(77)          5451.4756         2705.3052                                                                  
  2312   116.7658    5857(76)          5293.9946         2706.0242                                                                  
  2313   116.8158    5603(74)          5116.5801         2706.7432                                                                  
  2314   116.8658    5262(72)          4924.7471         2707.4622                                                                  
  2315   116.9158    4889(69)          4724.2749         2708.1809                                                                  
  2316   116.9658    4500(67)          4520.6475         2708.8999                                                                  
  2317   117.0158    4400(66)          4319.0068         2709.6191                                                                  
  2318   117.0658    4188(64)          4123.8579         2710.3379                                                                  
  2319   117.1158    3888(62)          3938.8501         2711.0569                                                                  
  2320   117.1658    3592(59)          3766.9089         2711.7759                                                                  
  2321   117.2158    3677(60)          3609.9956         2712.4949                                                                  
  2322   117.2658    3416(58)          3469.3315         2713.2139                                                                  
  2323   117.3158    3281(57)          3345.3811         2713.9326                                                                  
  2324   117.3658    3204(56)          3237.9150         2714.6519                                                                  
  2325   117.4158    3114(55)          3146.2559         2715.3706                                                                  
  2326   117.4658    3011(54)          3069.2786         2716.0896                                                                  
  2327   117.5158    2906(53)          3005.6404         2716.8086                                                                  
  2328   117.5658    2804(52)          2953.8435         2717.5276                                                                  
  2329   117.6158    2838(53)          2912.3210         2718.2466                                                                  
  2330   117.6658    2817(53)          2879.5676         2718.9656                                                                  
  2331   117.7158    2754(52)          2854.1470         2719.6846                                                                  
  2332   117.7658    2804(52)          2834.7712         2720.4036                                                                  
  2333   117.8158    2758(52)          2820.3040         2721.1223                                                                  
  2334   117.8658    2807(52)          2809.7693         2721.8413                                                                  
  2335   117.9158    2735(52)          2802.3625         2722.5603                                                                  
  2336   117.9658    2762(52)          2797.4290         2723.2793                                                                  
  2337   118.0158    2798(52)          2794.4597         2723.9983                                                                  
  2338   118.0658    2795(52)          2793.0718         2724.7173                                                                  
  2339   118.1158    2768(52)          2792.9927         2725.4363                                                                  
  2340   118.1658    2753(52)          2794.0469         2726.1550                                                                  
  2341   118.2158    2844(53)          2796.1443         2726.8740                                                                  
  2342   118.2658    2905(53)          2799.2688         2727.5933                                                                  
  2343   118.3158    2998(54)          2803.4714         2728.3120                                                                  
  2344   118.3658    3028(55)          2808.8696         2729.0310                                                                  
  2345   118.4158    3195(56)          2815.6404         2729.7500                                                                  
  2346   118.4658    3361(57)          2824.0273         2730.4690                                                                  
  2347   118.5158    3519(59)          2834.3333         2731.1880                                                                  
  2348   118.5658    3774(61)          2846.9431         2731.9067                                                                  
  2349   118.6158    3975(63)          2862.3110         2732.6260                                                                  
  2350   118.6658    4306(65)          2880.9678         2733.3447                                                                  
  2351   118.7158    4584(67)          2903.5432         2734.0637                                                                  
  2352   118.7658    4852(69)          2930.7507         2734.7827                                                                  
  2353   118.8158    5204(72)          2963.3987         2735.5017                                                                  
  2354   118.8658    5683(75)          3002.4089         2736.2207                                                                  
  2355   118.9158    6016(77)          3048.7805         2736.9397                                                                  
  2356   118.9658    6350(79)          3103.6323         2737.6587                                                                  
  2357   119.0158    6367(79)          3168.1497         2738.3777                                                                  
  2358   119.0658    6681(81)          3243.5850         2739.0964                                                                  
  2359   119.1158    7040(83)          3331.2808         2739.8154                                                                  
  2360   119.1658    7392(85)          3432.5603         2740.5344                                                                  
  2361   119.2158    7785(88)          3548.8049         2741.2534                                                                  
  2362   119.2658    8231(90)          3681.3137         2741.9724                                                                  
  2363   119.3158    8522(92)          3831.2974         2742.6914                                                                  
  2364   119.3658    8948(94)          3999.9089         2743.4104                                                                  
  2365   119.4158    9553(97)          4188.0254         2744.1292                                                                  
  2366   119.4658    10027(100)          4396.3955         2744.8481                                                                
  2367   119.5158    10611(103)          4625.4033         2745.5674                                                                
  2368   119.5658    11322(106)          4875.0654         2746.2861                                                                
  2369   119.6158    11780(108)          5145.1250         2747.0051                                                                
  2370   119.6658    12265(110)          5434.7202         2747.7241                                                                
  2371   119.7158    12993(113)          5742.6865         2748.4431                                                                
  2372   119.7658    13264(115)          6067.2227         2749.1621                                                                
  2373   119.8158    13433(115)          6406.0039         2749.8809                                                                
  2374   119.8658    13755(117)          6756.3447         2750.6001                                                                
  2375   119.9158    13896(117)          7114.8618         2751.3188                                                                
  2376   119.9658    13828(117)          7477.9258         2752.0378                                                                
  2377   120.0158    13728(117)          7841.3428         2752.7568                                                                
  2378   120.0658    13227(115)          8200.5898         2753.4758                                                                
  2379   120.1158    13154(114)          8551.0615         2754.1948                                                                
  2380   120.1658    12960(113)          8887.8047         2754.9138                                                                
  2381   120.2158    12578(112)          9206.0469         2755.6328                                                                
  2382   120.2658    12415(111)          9500.9785         2756.3518                                                                
  2383   120.3158    12493(111)          9768.0381         2757.0706                                                                
  2384   120.3658    12211(110)         10003.1777         2757.7896                                                                
  2385   120.4158    12300(110)         10202.7051         2758.5085                                                                
  2386   120.4658    12066(109)         10363.7031         2759.2275                                                                
  2387   120.5158    11997(109)         10483.9014         2759.9465                                                                
  2388   120.5658    11973(109)         10561.8652         2760.6655                                                                
  2389   120.6158    12021(109)         10597.0703         2761.3845                                                                
  2390   120.6658    12069(109)         10589.8320         2762.1035                                                                
  2391   120.7158    11830(108)         10541.3555         2762.8223                                                                
  2392   120.7658    11662(107)         10453.6963         2763.5415                                                                
  2393   120.8158    11524(107)         10329.7480         2764.2603                                                                
  2394   120.8658    11480(107)         10173.1143         2764.9792                                                                
  2395   120.9158    11187(105)          9988.2324         2765.6982                                                                
  2396   120.9658    11141(105)          9780.1377         2766.4172                                                                
  2397   121.0158    10771(103)          9554.6602         2767.1362                                                                
  2398   121.0658    10495(102)          9318.3027         2767.8552                                                                
  2399   121.1158    10221(101)          9078.1240         2768.5742                                                                
  2400   121.1658    10154(100)          8841.9258         2769.2930                                                                
  2401   121.2158    9859(99)          8617.9141         2770.0120                                                                  
  2402   121.2658    9487(97)          8414.7939         2770.7310                                                                  
  2403   121.3158    9533(97)          8241.4736         2771.4500                                                                  
  2404   121.3658    9480(97)          8106.7012         2772.1689                                                                  
  2405   121.4158    9393(96)          8018.8594         2772.8879                                                                  
  2406   121.4658    9274(96)          7985.3262         2773.6069                                                                  
  2407   121.5158    9466(97)          8011.9805         2774.3259                                                                  
  2408   121.5658    9959(99)          8102.7578         2775.0447                                                                  
  2409   121.6158    10522(102)          8258.7617         2775.7637                                                                
  2410   121.6658    11122(105)          8477.8379         2776.4827                                                                
  2411   121.7158    12065(109)          8754.2988         2777.2017                                                                
  2412   121.7658    13012(114)          9078.4854         2777.9207                                                                
  2413   121.8158    14130(118)          9436.8574         2778.6396                                                                
  2414   121.8658    15289(123)          9812.5156         2779.3586                                                                
  2415   121.9158    15978(126)         10185.4150         2780.0776                                                                
  2416   121.9658    16752(129)         10533.7119         2780.7964                                                                
  2417   122.0158    17461(132)         10834.5361         2781.5156                                                                
  2418   122.0658    18129(134)         11065.6611         2782.2344                                                                
  2419   122.1158    18372(135)         11207.2773         2782.9534                                                                
  2420   122.1658    18118(134)         11243.6523         2783.6724                                                                
  2421   122.2158    17576(132)         11165.0596         2784.3914                                                                
  2422   122.2658    16798(129)         10968.9023         2785.1104                                                                
  2423   122.3158    15710(125)         10660.1016         2785.8293                                                                
  2424   122.3658    14722(121)         10250.1279         2786.5483                                                                
  2425   122.4158    13627(116)          9755.8408         2787.2671                                                                
  2426   122.4658    12672(112)          9197.1719         2787.9861                                                                
  2427   122.5158    11733(108)          8595.8281         2788.7051                                                                
  2428   122.5658    10831(104)          7973.5303         2789.4241                                                                
  2429   122.6158    9898(99)          7350.4009         2790.1431                                                                  
  2430   122.6658    8754(93)          6744.6201         2790.8621                                                                  
  2431   122.7158    7828(88)          6170.9473         2791.5811                                                                  
  2432   122.7658    6941(83)          5640.9414         2792.3000                                                                  
  2433   122.8158    5990(77)          5162.5137         2793.0190                                                                  
  2434   122.8658    5233(72)          4739.8711         2793.7378                                                                  
  2435   122.9158    4681(68)          4374.3521         2794.4568                                                                  
  2436   122.9658    4025(63)          4064.4316         2795.1758                                                                  
  2437   123.0158    3626(60)          3806.7324         2795.8948                                                                  
  2438   123.0658    3348(57)          3596.4414         2796.6138                                                                  
  2439   123.1158    3160(56)          3427.8374         2797.3328                                                                  
  2440   123.1658    3134(55)          3295.0103         2798.0518                                                                  
  2441   123.2158    2972(54)          3192.0559         2798.7708                                                                  
  2442   123.2658    2780(52)          3113.5298         2799.4897                                                                  
  2443   123.3158    2899(53)          3054.5608         2800.2085                                                                  
  2444   123.3658    2858(53)          3010.9368         2800.9275                                                                  
  2445   123.4158    2905(53)          2979.1870         2801.6465                                                                  
  2446   123.4658    2856(53)          2956.4963         2802.3655                                                                  
  2447   123.5158    2871(53)          2940.6802         2803.0845                                                                  
  2448   123.5658    2930(54)          2930.0830         2803.8035                                                                  
  2449   123.6158    3020(54)          2923.4902         2804.5225                                                                  
  2450   123.6658    3122(55)          2920.0544         2805.2412                                                                  
  2451   123.7158    3149(56)          2919.2126         2805.9602                                                                  
  2452   123.7658    3290(57)          2920.6260         2806.6792                                                                  
  2453   123.8158    3275(57)          2924.1262         2807.3982                                                                  
  2454   123.8658    3391(58)          2929.6785         2808.1172                                                                  
  2455   123.9158    3477(58)          2937.3472         2808.8362                                                                  
  2456   123.9658    3606(60)          2947.2783         2809.5552                                                                  
  2457   124.0158    3705(60)          2959.6775         2810.2742                                                                  
  2458   124.0658    3823(61)          2974.7820         2810.9932                                                                  
  2459   124.1158    3929(62)          2992.9238         2811.7119                                                                  
  2460   124.1658    4125(64)          3014.4080         2812.4309                                                                  
  2461   124.2158    4227(65)          3039.5903         2813.1499                                                                  
  2462   124.2658    4267(65)          3068.8328         2813.8689                                                                  
  2463   124.3158    4327(65)          3102.5010         2814.5879                                                                  
  2464   124.3658    4551(67)          3140.9727         2815.3069                                                                  
  2465   124.4158    4661(68)          3184.5906         2816.0259                                                                  
  2466   124.4658    4802(69)          3233.6951         2816.7449                                                                  
  2467   124.5158    4868(69)          3288.5703         2817.4639                                                                  
  2468   124.5658    5062(71)          3349.4431         2818.1826                                                                  
  2469   124.6158    5119(71)          3416.5029         2818.9016                                                                  
  2470   124.6658    5234(72)          3489.8206         2819.6206                                                                  
  2471   124.7158    5332(73)          3569.4141         2820.3396                                                                  
  2472   124.7658    5434(73)          3655.1624         2821.0586                                                                  
  2473   124.8158    5590(74)          3746.8223         2821.7776                                                                  
  2474   124.8658    5770(75)          3844.0647         2822.4966                                                                  
  2475   124.9158    5903(76)          3946.3689         2823.2153                                                                  
  2476   124.9658    6023(77)          4053.1375         2823.9346                                                                  
  2477   125.0158    6033(77)          4163.5854         2824.6533                                                                  
  2478   125.0658    6214(78)          4276.7935         2825.3723                                                                  
  2479   125.1158    6127(78)          4391.7637         2826.0913                                                                  
  2480   125.1658    6214(78)          4507.3149         2826.8103                                                                  
  2481   125.2158    6326(79)          4622.2334         2827.5293                                                                  
  2482   125.2658    6237(78)          4735.1743         2828.2483                                                                  
  2483   125.3158    6145(78)          4844.7349         2828.9673                                                                  
  2484   125.3658    6052(77)          4949.5322         2829.6863                                                                  
  2485   125.4158    6026(77)          5048.1201         2830.4050                                                                  
  2486   125.4658    6052(77)          5139.1494         2831.1240                                                                  
  2487   125.5158    6078(77)          5221.2920         2831.8430                                                                  
  2488   125.5658    5828(76)          5293.3340         2832.5620                                                                  
  2489   125.6158    6117(78)          5354.2314         2833.2810                                                                  
  2490   125.6658    5843(76)          5403.0781         2834.0000                                                                  
  2491   125.7158    5873(76)          5439.2021         2834.7190                                                                  
  2492   125.7658    5904(76)          5462.1357         2835.4380                                                                  
  2493   125.8158    5724(75)          5471.6621         2836.1567                                                                  
  2494   125.8658    5530(74)          5467.8193         2836.8757                                                                  
  2495   125.9158    5688(75)          5450.9004         2837.5947                                                                  
  2496   125.9658    5513(74)          5421.4365         2838.3137                                                                  
  2497   126.0158    5576(74)          5380.2148         2839.0327                                                                  
  2498   126.0658    5454(73)          5328.2578         2839.7517                                                                  
  2499   126.1158    5547(74)          5266.7847         2840.4707                                                                  
  2500   126.1658    5393(73)          5197.2539         2841.1895                                                                  
  2501   126.2158    5177(71)          5121.2808         2841.9087                                                                  
  2502   126.2658    5108(71)          5040.6943         2842.6274                                                                  
  2503   126.3158    5144(71)          4957.4946         2843.3464                                                                  
  2504   126.3658    5220(72)          4873.7930         2844.0654                                                                  
  2505   126.4158    4899(69)          4791.8809         2844.7844                                                                  
  2506   126.4658    5104(71)          4714.0947         2845.5034                                                                  
  2507   126.5158    5022(70)          4642.8643         2846.2224                                                                  
  2508   126.5658    4896(69)          4580.6074         2846.9414                                                                  
  2509   126.6158    4988(70)          4529.6343         2847.6604                                                                  
  2510   126.6658    4994(70)          4492.1123         2848.3792                                                                  
  2511   126.7158    5084(71)          4469.8926         2849.0981                                                                  
  2512   126.7658    5100(71)          4464.4282         2849.8171                                                                  
  2513   126.8158    5184(72)          4476.6118         2850.5361                                                                  
  2514   126.8658    5507(74)          4506.6602         2851.2551                                                                  
  2515   126.9158    5760(75)          4553.9775         2851.9741                                                                  
  2516   126.9658    5994(77)          4617.1055         2852.6931                                                                  
  2517   127.0158    6167(78)          4693.6309         2853.4121                                                                  
  2518   127.0658    6369(79)          4780.2051         2854.1309                                                                  
  2519   127.1158    6736(82)          4872.6621         2854.8499                                                                  
  2520   127.1658    6942(83)          4966.0576         2855.5688                                                                  
  2521   127.2158    7167(84)          5054.9707         2856.2878                                                                  
  2522   127.2658    7397(86)          5133.6689         2857.0068                                                                  
  2523   127.3158    7273(85)          5196.4829         2857.7258                                                                  
  2524   127.3658    7322(85)          5238.1724         2858.4448                                                                  
  2525   127.4158    7300(85)          5254.4355         2859.1636                                                                  
  2526   127.4658    7012(83)          5242.1851         2859.8828                                                                  
  2527   127.5158    6915(83)          5199.9980         2860.6018                                                                  
  2528   127.5658    6726(82)          5128.2793         2861.3206                                                                  
  2529   127.6158    6395(79)          5029.1328         2862.0396                                                                  
  2530   127.6658    6072(77)          4906.1460         2862.7585                                                                  
  2531   127.7158    5817(76)          4763.9287         2863.4775                                                                  
  2532   127.7658    5490(74)          4607.6929         2864.1965                                                                  
  2533   127.8158    5330(73)          4442.8467         2864.9155                                                                  
  2534   127.8658    5084(71)          4274.6665         2865.6345                                                                  
  2535   127.9158    4805(69)          4108.0303         2866.3533                                                                  
  2536   127.9658    4433(66)          3947.1226         2867.0723                                                                  
  2537   128.0158    4188(64)          3795.4355         2867.7913                                                                  
  2538   128.0658    3862(62)          3655.5894         2868.5103                                                                  
  2539   128.1158    3561(59)          3529.3740         2869.2292                                                                  
  2540   128.1658    3465(58)          3417.6541         2869.9482                                                                  
  2541   128.2158    3302(57)          3320.6707         2870.6672                                                                  
  2542   128.2658    3199(56)          3238.0171         2871.3862                                                                  
  2543   128.3158    3034(55)          3168.8149         2872.1052                                                                  
  2544   128.3658    2967(54)          3111.8730         2872.8240                                                                  
  2545   128.4158    2940(54)          3065.0608         2872.8479                                                                  
  2546   128.4658    2851(53)          3027.3425         2872.6011                                                                  
  2547   128.5158    2808(52)          2997.5271         2872.3545                                                                  
  2548   128.5658    2746(52)          2974.2373         2872.1079                                                                  
  2549   128.6158    2760(52)          2956.2344         2871.8613                                                                  
  2550   128.6658    2690(51)          2942.4202         2871.6145                                                                  
  2551   128.7158    2809(53)          2931.8809         2871.3679                                                                  
  2552   128.7658    2853(53)          2923.8562         2871.1213                                                                  
  2553   128.8158    2616(51)          2917.7344         2870.8745                                                                  
  2554   128.8658    2660(51)          2913.0359         2870.6279                                                                  
  2555   128.9158    2746(52)          2909.3870         2870.3813                                                                  
  2556   128.9658    2674(51)          2906.5088         2870.1348                                                                  
  2557   129.0158    2786(52)          2904.1924         2869.8879                                                                  
  2558   129.0658    2696(51)          2902.2861         2869.6414                                                                  
  2559   129.1158    2764(52)          2900.6802         2869.3948                                                                  
  2560   129.1658    2794(52)          2899.2954         2869.1482                                                                  
  2561   129.2158    2740(52)          2898.0767         2868.9014                                                                  
  2562   129.2658    2800(52)          2896.9854         2868.6548                                                                  
  2563   129.3158    2781(52)          2895.9944         2868.4082                                                                  
  2564   129.3658    2684(51)          2895.0850         2868.1616                                                                  
  2565   129.4158    2736(52)          2894.2429         2867.9148                                                                  
  2566   129.4658    2724(52)          2893.4595         2867.6682                                                                  
  2567   129.5158    2805(52)          2892.7278         2867.4216                                                                  
  2568   129.5658    2746(52)          2892.0425         2867.1748                                                                  
  2569   129.6158    2750(52)          2891.4014         2866.9282                                                                  
  2570   129.6658    2879(53)          2890.8015         2866.6816                                                                  
  2571   129.7158    2734(52)          2890.2417         2866.4351                                                                  
  2572   129.7658    2803(52)          2889.7217         2866.1882                                                                  
  2573   129.8158    2925(54)          2889.2427         2865.9417                                                                  
  2574   129.8658    2973(54)          2888.8069         2865.6951                                                                  
  2575   129.9158    3058(55)          2888.4180         2865.4485                                                                  
  2576   129.9658    3032(55)          2888.0818         2865.2017                                                                  
  2577   130.0158    3074(55)          2887.8069         2864.9551                                                                  
  2578   130.0658    3166(56)          2887.6050         2864.7085                                                                  
  2579   130.1158    3382(58)          2887.4924         2864.4619                                                                  
  2580   130.1658    3398(58)          2887.4900         2864.2151                                                                  
  2581   130.2158    3435(58)          2887.6265         2863.9685                                                                  
  2582   130.2658    3377(58)          2887.9377         2863.7219                                                                  
  2583   130.3158    3610(60)          2888.4702         2863.4751                                                                  
  2584   130.3658    3583(59)          2889.2825         2863.2285                                                                  
  2585   130.4158    3683(60)          2890.4482         2862.9819                                                                  
  2586   130.4658    3762(61)          2892.0430         2862.7354                                                                  
  2587   130.5158    3647(60)          2894.2073         2862.4885                                                                  
  2588   130.5658    3835(61)          2897.0613         2862.2419                                                                  
  2589   130.6158    3767(61)          2900.7651         2861.9954                                                                  
  2590   130.6658    3823(61)          2905.5117         2861.7488                                                                  
  2591   130.7158    3836(61)          2911.5269         2861.5020                                                                  
  2592   130.7658    3912(62)          2919.0684         2861.2554                                                                  
  2593   130.8158    4114(64)          2928.4292         2861.0088                                                                  
  2594   130.8658    4033(63)          2939.9290         2860.7622                                                                  
  2595   130.9158    4081(63)          2953.9226         2860.5154                                                                  
  2596   130.9658    4169(64)          2970.7676         2860.2688                                                                  
  2597   131.0158    4288(65)          2990.8196         2860.0222                                                                  
  2598   131.0658    4168(64)          3014.4072         2859.7754                                                                  
  2599   131.1158    4354(65)          3041.7959         2859.5288                                                                  
  2600   131.1658    4469(66)          3073.1902         2859.2822                                                                  
  2601   131.2158    4652(68)          3108.6511         2859.0356                                                                  
  2602   131.2658    4715(68)          3148.0972         2858.7888                                                                  
  2603   131.3158    4672(68)          3191.2720         2858.5422                                                                  
  2604   131.3658    4730(68)          3237.7117         2858.2957                                                                  
  2605   131.4158    4742(69)          3286.8013         2858.0491                                                                  
  2606   131.4658    4799(69)          3337.6980         2857.8022                                                                  
  2607   131.5158    4905(70)          3389.4138         2857.5557                                                                  
  2608   131.5658    4830(70)          3440.8376         2857.3091                                                                  
  2609   131.6158    4737(69)          3490.7749         2857.0625                                                                  
  2610   131.6658    4643(69)          3538.0769         2856.8159                                                                  
  2611   131.7158    4660(69)          3581.6318         2856.5691                                                                  
  2612   131.7658    4443(67)          3620.5107         2856.3225                                                                  
  2613   131.8158    4470(68)          3654.0093         2856.0759                                                                  
  2614   131.8658    4407(67)          3681.6528         2855.8291                                                                  
  2615   131.9158    4299(67)          3703.1951         2855.5825                                                                  
  2616   131.9658    4156(66)          3718.5029         2855.3359                                                                  
  2617   132.0158    4131(66)          3727.5430         2855.0894                                                                  
  2618   132.0658    4141(66)          3730.3330         2854.8425                                                                  
  2619   132.1158    4079(65)          3726.9358         2854.5959                                                                  
  2620   132.1658    3917(64)          3717.4502         2854.3494                                                                  
  2621   132.2158    3681(62)          3702.0356         2854.1028                                                                  
  2622   132.2658    3514(61)          3680.9238         2853.8560                                                                  
  2623   132.3158    3684(63)          3654.4392         2853.6094                                                                  
  2624   132.3658    3491(61)          3623.0181         2853.3628                                                                  
  2625   132.4158    3441(61)          3587.1719         2853.1162                                                                  
  2626   132.4658    3356(60)          3547.5376         2852.8694                                                                  
  2627   132.5158    3204(59)          3504.8179         2852.6228                                                                  
  2628   132.5658    3207(59)          3459.7861         2852.3762                                                                  
  2629   132.6158    3186(59)          3413.2466         2852.1296                                                                  
  2630   132.6658    3079(58)          3365.9697         2851.8828                                                                  
  2631   132.7158    3138(59)          3318.7476         2851.6362                                                                  
  2632   132.7658    3172(59)          3272.3130         2851.3896                                                                  
  2633   132.8158    3091(58)          3227.3303         2851.1428                                                                  
  2634   132.8658    3014(58)          3184.3909         2850.8962                                                                  
  2635   132.9158    3006(58)          3143.9448         2850.6497                                                                  
  2636   132.9658    2967(58)          3106.3721         2850.4031                                                                  
  2637   133.0158    2934(57)          3071.9253         2850.1562                                                                  
  2638   133.0658    2851(57)          3040.7476         2849.9097                                                                  
  2639   133.1158    2907(57)          3012.8853         2849.6631                                                                  
  2640   133.1658    2872(57)          2988.2703         2849.4165                                                                  
  2641   133.2158    2832(57)          2966.7832         2849.1697                                                                  
  2642   133.2658    2763(56)          2948.2373         2848.9231                                                                  
  2643   133.3158    2787(57)          2932.4011         2848.6765                                                                  
  2644   133.3658    2846(57)          2919.0205         2848.4299                                                                  
  2645   133.4158    2861(58)          2907.8164         2848.1831                                                                  
  2646   133.4658    2849(58)          2898.5217         2847.9365                                                                  
  2647   133.5158    2876(58)          2890.8728         2847.6899                                                                  
  2648   133.5658    2753(57)          2884.6228         2847.4431                                                                  
  2649   133.6158    2820(58)          2879.5476         2847.1965                                                                  
  2650   133.6658    2850(58)          2875.4417         2846.9500                                                                  
  2651   133.7158    2704(57)          2872.1301         2846.7034                                                                  
  2652   133.7658    2703(57)          2869.4602         2846.4565                                                                  
  2653   133.8158    2750(57)          2867.3044         2846.2100                                                                  
  2654   133.8658    2776(58)          2865.5557         2845.9634                                                                  
  2655   133.9158    2729(57)          2864.1218         2845.7168                                                                  
  2656   133.9658    2788(58)          2862.9402         2845.4700                                                                  
  2657   134.0158    2797(58)          2861.9509         2845.2234                                                                  
  2658   134.0658    2747(58)          2861.1099         2844.9768                                                                  
  2659   134.1158    2631(57)          2860.3821         2844.7302                                                                  
  2660   134.1658    2740(58)          2859.7083         2844.4834                                                                  
  2661   134.2158    2766(58)          2859.1338         2844.2368                                                                  
  2662   134.2658    2762(58)          2858.6106         2843.9902                                                                  
  2663   134.3158    2786(59)          2858.1270         2843.7434                                                                  
  2664   134.3658    2764(59)          2857.6748         2843.4968                                                                  
  2665   134.4158    2805(59)          2857.2473         2843.2502                                                                  
  2666   134.4658    2745(59)          2856.8398         2843.0037                                                                  
  2667   134.5158    2850(60)          2856.4490         2842.7568                                                                  
  2668   134.5658    2745(59)          2856.0723         2842.5103                                                                  
  2669   134.6158    2829(60)          2855.7078         2842.2637                                                                  
  2670   134.6658    2856(60)          2855.3538         2842.0171                                                                  
  2671   134.7158    2768(60)          2855.0090         2841.7703                                                                  
  2672   134.7658    2775(60)          2854.6733         2841.5237                                                                  
  2673   134.8158    2779(60)          2854.3452         2841.2771                                                                  
  2674   134.8658    2774(60)          2854.0247         2841.0305                                                                  
  2675   134.9158    2722(60)          2853.7107         2840.7837                                                                  
  2676   134.9658    2755(60)          2853.4033         2840.5371                                                                  
  2677   135.0158    2749(60)          2853.1023         2840.2905                                                                  
  2678   135.0658    2834(61)          2852.8064         2840.0437                                                                  
  2679   135.1158    2784(61)          2852.5166         2839.7971                                                                  
  2680   135.1658    2792(61)          2852.2319         2839.5505                                                                  
  2681   135.2158    2863(62)          2851.9521         2839.3040                                                                  
  2682   135.2658    2861(62)          2851.6770         2839.0571                                                                  
  2683   135.3158    2882(62)          2851.4070         2838.8105                                                                  
  2684   135.3658    2693(60)          2851.1411         2838.5640                                                                  
  2685   135.4158    2695(60)          2850.8796         2838.3174                                                                  
  2686   135.4658    2823(62)          2850.6221         2838.0706                                                                  
  2687   135.5158    2790(62)          2850.3689         2837.8240                                                                  
  2688   135.5658    2739(61)          2850.1196         2837.5774                                                                  
  2689   135.6158    2695(61)          2849.8740         2837.3308                                                                  
  2690   135.6658    2782(62)          2849.6318         2837.0840                                                                  
  2691   135.7158    2775(62)          2849.3938         2836.8374                                                                  
  2692   135.7658    2813(63)          2849.1589         2836.5908                                                                  
  2693   135.8158    2907(64)          2848.9275         2836.3440                                                                  
  2694   135.8658    2768(62)          2848.6997         2836.0974                                                                  
  2695   135.9158    2776(63)          2848.4751         2835.8508                                                                  
  2696   135.9658    2783(63)          2848.2539         2835.6042                                                                  
  2697   136.0158    2844(64)          2848.0356         2835.3574                                                                  
  2698   136.0658    2812(63)          2847.8208         2835.1108                                                                  
  2699   136.1158    2924(65)          2847.6089         2834.8643                                                                  
  2700   136.1658    2854(64)          2847.4004         2834.6177                                                                  
  2701   136.2158    2745(63)          2847.1946         2834.3708                                                                  
  2702   136.2658    2852(64)          2846.9919         2834.1243                                                                  
  2703   136.3158    2713(63)          2846.7925         2833.8777                                                                  
  2704   136.3658    2692(63)          2846.5959         2833.6311                                                                  
  2705   136.4158    2833(64)          2846.4021         2833.3843                                                                  
  2706   136.4658    2747(64)          2846.2117         2833.1377                                                                  
  2707   136.5158    2811(64)          2846.0239         2832.8911                                                                  
  2708   136.5658    2802(64)          2845.8391         2832.6443                                                                  
  2709   136.6158    2894(66)          2845.6575         2832.3977                                                                  
  2710   136.6658    2914(66)          2845.4790         2832.1511                                                                  
  2711   136.7158    2772(64)          2845.3035         2831.9045                                                                  
  2712   136.7658    2765(65)          2845.1306         2831.6577                                                                  
  2713   136.8158    2872(66)          2844.9609         2831.4111                                                                  
  2714   136.8658    2758(65)          2844.7944         2831.1646                                                                  
  2715   136.9158    2842(66)          2844.6309         2830.9180                                                                  
  2716   136.9658    2706(64)          2844.4702         2830.6711                                                                  
  2717   137.0158    2832(66)          2844.3130         2830.4246                                                                  
  2718   137.0658    2828(66)          2844.1587         2830.1780                                                                  
  2719   137.1158    2985(68)          2844.0078         2829.9314                                                                  
  2720   137.1658    2854(67)          2843.8596         2829.6846                                                                  
  2721   137.2158    2787(66)          2843.7151         2829.4380                                                                  
  2722   137.2658    2766(66)          2843.5740         2829.1914                                                                  
  2723   137.3158    2836(67)          2843.4358         2828.9446                                                                  
  2724   137.3658    2887(68)          2843.3013         2828.6980                                                                  
  2725   137.4158    2866(67)          2843.1702         2828.4514                                                                  
  2726   137.4658    2843(67)          2843.0425         2828.2048                                                                  
  2727   137.5158    2794(67)          2842.8938         2827.9580                                                                  
  2728   137.5658    2851(68)          2842.7734         2827.7114                                                                  
  2729   137.6158    2827(67)          2842.6567         2827.4648                                                                  
  2730   137.6658    2865(68)          2842.5439         2827.2183                                                                  
  2731   137.7158    2749(67)          2842.4346         2826.9714                                                                  
  2732   137.7658    2881(69)          2842.3293         2826.7249                                                                  
  2733   137.8158    2796(68)          2842.2280         2826.4783                                                                  
  2734   137.8658    2944(70)          2842.1309         2826.2317                                                                  
  2735   137.9158    2919(69)          2842.0376         2825.9849                                                                  
  2736   137.9658    3012(71)          2841.9487         2825.7383                                                                  
  2737   138.0158    2983(70)          2841.8643         2825.4917                                                                  
  2738   138.0658    2966(70)          2841.7837         2825.2449                                                                  
  2739   138.1158    2994(71)          2841.7080         2824.9983                                                                  
  2740   138.1658    2941(70)          2841.6370         2824.7517                                                                  
  2741   138.2158    2982(71)          2841.5708         2824.5051                                                                  
  2742   138.2658    2999(71)          2841.5090         2824.2583                                                                  
  2743   138.3158    2985(71)          2841.4526         2824.0117                                                                  
  2744   138.3658    2939(71)          2841.4011         2823.7651                                                                  
  2745   138.4158    2981(72)          2841.3550         2823.5186                                                                  
  2746   138.4658    2960(71)          2841.3140         2823.2717                                                                  
  2747   138.5158    2873(71)          2841.2788         2823.0251                                                                  
  2748   138.5658    2919(71)          2841.2490         2822.7786                                                                  
  2749   138.6158    2906(71)          2841.2251         2822.5320                                                                  
  2750   138.6658    2969(72)          2841.2070         2822.2852                                                                  
  2751   138.7158    3024(73)          2841.1953         2822.0386                                                                  
  2752   138.7658    3039(73)          2841.1899         2821.7920                                                                  
  2753   138.8158    2862(71)          2841.1909         2821.5452                                                                  
  2754   138.8658    2965(73)          2841.1985         2821.2986                                                                  
  2755   138.9158    2978(73)          2841.2131         2821.0520                                                                  
  2756   138.9658    3128(75)          2841.2349         2820.8054                                                                  
  2757   139.0158    2910(72)          2841.2637         2820.5586                                                                  
  2758   139.0658    2936(73)          2841.3003         2820.3120                                                                  
  2759   139.1158    2945(73)          2841.3447         2820.0654                                                                  
  2760   139.1658    3008(74)          2841.3972         2819.8188                                                                  
  2761   139.2158    2836(72)          2841.4578         2819.5720                                                                  
  2762   139.2658    2903(73)          2841.5271         2819.3254                                                                  
  2763   139.3158    2951(74)          2841.6055         2819.0789                                                                  
  2764   139.3658    2978(74)          2842.2402         2819.3796                                                                  
  2765   139.4158    2995(75)          2846.2544         2823.0503                                                                  
  2766   139.4658    2965(74)          2850.2783         2826.7207                                                                  
  2767   139.5158    2933(74)          2854.3127         2830.3914                                                                  
  2768   139.5658    2982(75)          2858.3579         2834.0618                                                                  
  2769   139.6158    2980(75)          2862.4128         2837.7312                                                                  
  2770   139.6658    3167(78)          2866.4807         2841.4016                                                                  
  2771   139.7158    3039(76)          2870.5613         2845.0723                                                                  
  2772   139.7658    3055(76)          2874.6543         2848.7427                                                                  
  2773   139.8158    2979(76)          2878.7610         2852.4133                                                                  
  2774   139.8658    2990(76)          2882.8806         2856.0828                                                                  
  2775   139.9158    2797(74)          2887.0166         2859.7532                                                                  
  2776   139.9658    2856(75)          2891.1689         2863.4236                                                                  
  2777   140.0158    2993(76)          2895.3386         2867.0942                                                                  
  2778   140.0658    2907(76)          2899.5269         2870.7646                                                                  
  2779   140.1158    2872(75)          2903.7339         2874.4341                                                                  
  2780   140.1658    2978(77)          2907.9641         2878.1047                                                                  
  2781   140.2158    2950(77)          2912.2183         2881.7751                                                                  
  2782   140.2658    2890(76)          2916.4985         2885.4456                                                                  
  2783   140.3158    3012(78)          2920.8083         2889.1162                                                                  
  2784   140.3658    2959(77)          2925.1494         2892.7856                                                                  
  2785   140.4158    3054(79)          2929.5278         2896.4561                                                                  
  2786   140.4658    3025(78)          2933.9475         2900.1267                                                                  
  2787   140.5158    2977(78)          2938.4133         2903.7971                                                                  
  2788   140.5658    3005(78)          2942.9326         2907.4678                                                                  
  2789   140.6158    2985(78)          2947.5103         2911.1370                                                                  
  2790   140.6658    2844(77)          2952.1592         2914.8076                                                                  
  2791   140.7158    2901(77)          2956.8877         2918.4780                                                                  
  2792   140.7658    2974(79)          2961.7087         2922.1487                                                                  
  2793   140.8158    2946(78)          2966.6357         2925.8191                                                                  
  2794   140.8658    3086(80)          2971.6851         2929.4885                                                                  
  2795   140.9158    3080(81)          2976.8789         2933.1592                                                                  
  2796   140.9658    2882(78)          2982.2385         2936.8296                                                                  
  2797   141.0158    2927(79)          2987.7908         2940.5000                                                                  
  2798   141.0658    2984(80)          2993.5667         2944.1707                                                                  
  2799   141.1158    3172(82)          2999.5994         2947.8401                                                                  
  2800   141.1658    3258(84)          3005.9336         2951.5105                                                                  
  2801   141.2158    3204(83)          3012.6150         2955.1812                                                                  
  2802   141.2658    3309(85)          3019.6968         2958.8516                                                                  
  2803   141.3158    3338(85)          3027.2405         2962.5220                                                                  
  2804   141.3658    3374(86)          3035.3132         2966.1914                                                                  
  2805   141.4158    3272(85)          3043.9993         2969.8621                                                                  
  2806   141.4658    3493(88)          3053.3848         2973.5325                                                                  
  2807   141.5158    3691(90)          3063.5703         2977.2031                                                                  
  2808   141.5658    3871(93)          3074.6677         2980.8735                                                                  
  2809   141.6158    3980(94)          3086.7991         2984.5430                                                                  
  2810   141.6658    3995(95)          3100.1106         2988.2134                                                                  
  2811   141.7158    4359(99)          3114.7534         2991.8840                                                                  
  2812   141.7658    4558(102)          3130.8970         2995.5544                                                                 
  2813   141.8158    4699(103)          3148.7288         2999.2251                                                                 
  2814   141.8658    4959(106)          3168.4458         3002.8945                                                                 
  2815   141.9158    5334(111)          3190.2817         3006.5649                                                                 
  2816   141.9658    5553(113)          3214.4719         3010.2354                                                                 
  2817   142.0158    5770(116)          3241.2747         3013.9060                                                                 
  2818   142.0658    6225(120)          3270.9673         3017.5764                                                                 
  2819   142.1158    6526(123)          3303.8345         3021.2458                                                                 
  2820   142.1658    6689(125)          3340.2100         3024.9165                                                                 
  2821   142.2158    6994(128)          3380.4128         3028.5869                                                                 
  2822   142.2658    7325(132)          3424.7893         3032.2576                                                                 
  2823   142.3158    7615(134)          3473.6968         3035.9280                                                                 
  2824   142.3658    7767(136)          3527.4885         3039.5974                                                                 
  2825   142.4158    7920(138)          3586.5752         3043.2678                                                                 
  2826   142.4658    8126(140)          3651.3250         3046.9385                                                                 
  2827   142.5158    8314(142)          3722.1226         3050.6089                                                                 
  2828   142.5658    8657(145)          3799.3511         3054.2795                                                                 
  2829   142.6158    8674(145)          3883.3579         3057.9487                                                                 
  2830   142.6658    8786(147)          3974.5566         3061.6194                                                                 
  2831   142.7158    9022(149)          4073.2659         3065.2898                                                                 
  2832   142.7658    8876(148)          4179.8042         3068.9604                                                                 
  2833   142.8158    9302(152)          4294.4590         3072.6309                                                                 
  2834   142.8658    9529(154)          4417.4395         3076.3003                                                                 
  2835   142.9158    9744(156)          4549.0244         3079.9707                                                                 
  2836   142.9658    9633(155)          4689.3286         3083.6414                                                                 
  2837   143.0158    9820(157)          4838.4419         3087.3118                                                                 
  2838   143.0658    10165(160)          4996.3882         3090.9824                                                                
  2839   143.1158    10271(162)          5163.0645         3094.6519                                                                
  2840   143.1658    10785(166)          5338.4404         3098.3223                                                                
  2841   143.2158    10814(166)          5522.2505         3101.9929                                                                
  2842   143.2658    11108(169)          5714.1846         3105.6633                                                                
  2843   143.3158    11400(172)          5913.8359         3109.3340                                                                
  2844   143.3658    11602(174)          6120.6362         3113.0032                                                                
  2845   143.4158    12188(178)          6334.1030         3116.6738                                                                
  2846   143.4658    12338(180)          6553.4639         3120.3442                                                                
  2847   143.5158    12499(181)          6777.9043         3124.0149                                                                
  2848   143.5658    12180(179)          7006.5093         3127.6853                                                                
  2849   143.6158    12403(181)          7238.1914         3131.3547                                                                
  2850   143.6658    12571(183)          7471.9941         3135.0254                                                                
  2851   143.7158    12538(183)          7706.6519         3138.6958                                                                
  2852   143.7658    12656(184)          7940.8916         3142.3662                                                                
  2853   143.8158    12656(185)          8173.3760         3146.0369                                                                
  2854   143.8658    12567(185)          8402.6396         3149.7063                                                                
  2855   143.9158    12482(184)          8627.3838         3153.3767                                                                
  2856   143.9658    12408(184)          8846.0713         3157.0474                                                                
  2857   144.0158    12621(186)          9057.2207         3160.7178                                                                
  2858   144.0658    12453(185)          9259.3594         3164.3882                                                                
  2859   144.1158    12263(184)          9450.9805         3168.0576                                                                
  2860   144.1658    12091(183)          9630.8018         3171.7283                                                                
  2861   144.2158    12054(183)          9797.4248         3175.3987                                                                
  2862   144.2658    11876(183)          9949.6055         3179.0693                                                                
  2863   144.3158    11926(183)         10086.2129         3182.7397                                                                
  2864   144.3658    12154(185)         10206.2188         3186.4092                                                                
  2865   144.4158    12240(187)         10308.8633         3190.0796                                                                
  2866   144.4658    11821(184)         10393.4531         3193.7502                                                                
  2867   144.5158    11869(184)         10459.5410         3197.4207                                                                
  2868   144.5658    11829(185)         10506.9004         3201.0913                                                                
  2869   144.6158    11865(185)         10535.5391         3204.7607                                                                
  2870   144.6658    11710(184)         10545.7373         3208.4312                                                                
  2871   144.7158    12006(187)         10538.0059         3212.1016                                                                
  2872   144.7658    11938(187)         10513.1299         3215.7722                                                                
  2873   144.8158    11464(184)         10472.1602         3219.4426                                                                
  2874   144.8658    11334(183)         10416.4180         3223.1121                                                                
  2875   144.9158    11601(186)         10347.4219         3226.7827                                                                
  2876   144.9658    11135(182)         10266.9629         3230.4531                                                                
  2877   145.0158    11211(183)         10177.0312         3234.1235                                                                
  2878   145.0658    11323(185)         10079.7959         3237.7942                                                                
  2879   145.1158    10987(182)          9977.6084         3241.4636                                                                
  2880   145.1658    11087(183)          9872.8467         3245.1340                                                                
  2881   145.2158    11470(187)          9768.0605         3248.8047                                                                
  2882   145.2658    11525(188)          9665.8008         3252.4751                                                                
  2883   145.3158    11431(187)          9568.6123         3256.1458                                                                
  2884   145.3658    11996(192)          9478.9971         3259.8149                                                                
  2885   145.4158    11939(192)          9399.2598         3263.4856                                                                
  2886   145.4658    12708(199)          9331.6094         3267.1560                                                                
  2887   145.5158    12893(201)          9277.9922         3270.8267                                                                
  2888   145.5658    13400(205)          9240.0518         3274.4971                                                                
  2889   145.6158    13781(209)          9219.0801         3278.1665                                                                
  2890   145.6658    13966(210)          9215.9336         3281.8369                                                                
  2891   145.7158    14239(213)          9231.0215         3285.5076                                                                
  2892   145.7658    14112(212)          9264.2354         3289.1780                                                                
  2893   145.8158    14265(214)          9314.9180         3292.8486                                                                
  2894   145.8658    14393(216)          9381.8184         3296.5181                                                                
  2895   145.9158    14460(217)          9463.1729         3300.1885                                                                
  2896   145.9658    14602(218)          9556.5928         3303.8591                                                                
  2897   146.0158    14978(221)          9659.1611         3307.5295                                                                
  2898   146.0658    14766(220)          9767.4639         3311.2002                                                                
  2899   146.1158    14893(222)          9877.6191         3314.8694                                                                
  2900   146.1658    14807(222)          9985.4883         3318.5400                                                                
  2901   146.2158    15354(226)         10086.5742         3322.2104                                                                
  2902   146.2658    15788(230)         10176.2764         3325.8811                                                                
  2903   146.3158    15783(230)         10249.9873         3329.5515                                                                
  2904   146.3658    15095(226)         10303.2344         3333.2209                                                                
  2905   146.4158    15336(228)         10331.8838         3336.8916                                                                
  2906   146.4658    15190(227)         10332.2930         3340.5620                                                                
  2907   146.5158    14865(226)         10301.4512         3344.2324                                                                
  2908   146.5658    14025(220)         10237.1865         3347.9031                                                                
  2909   146.6158    13238(214)         10138.3271         3351.5723                                                                
  2910   146.6658    12824(211)         10004.6338         3355.2429                                                                
  2911   146.7158    11808(203)          9836.9941         3358.9136                                                                
  2912   146.7658    11530(201)          9637.2529         3362.5840                                                                
  2913   146.8158    10827(195)          9408.1211         3366.2544                                                                
  2914   146.8658    10426(192)          9153.0889         3369.9238                                                                
  2915   146.9158    9782(186)          8875.9307         3373.5945                                                                 
  2916   146.9658    9519(184)          8580.9980         3377.2649                                                                 
  2917   147.0158    9020(180)          8272.7500         3380.9355                                                                 
  2918   147.0658    8767(177)          7955.6465         3384.6060                                                                 
  2919   147.1158    8446(175)          7634.2324         3388.2754                                                                 
  2920   147.1658    8379(174)          7312.4756         3391.9458                                                                 
  2921   147.2158    7963(170)          6994.3740         3395.6165                                                                 
  2922   147.2658    7745(168)          6683.4561         3399.2869                                                                 
  2923   147.3158    7132(162)          6382.8311         3402.9575                                                                 
  2924   147.3658    6771(158)          6095.2261         3406.6270                                                                 
  2925   147.4158    6210(152)          5822.6230         3410.2974                                                                 
  2926   147.4658    5994(149)          5566.7754         3413.9678                                                                 
  2927   147.5158    5667(146)          5328.8647         3417.6384                                                                 
  2928   147.5658    5232(140)          5109.6099         3421.3088                                                                 
  2929   147.6158    4907(136)          4909.3672         3424.9783                                                                 
  2930   147.6658    4739(134)          4727.9287         3428.6489                                                                 
  2931   147.7158    4455(130)          4564.9448         3432.3193                                                                 
  2932   147.7658    4062(125)          4419.7285         3435.9897                                                                 
  2933   147.8158    3893(122)          4291.3721         3439.6604                                                                 
  2934   147.8658    3882(122)          4178.8359         3443.3298                                                                 
  2935   147.9158    3800(121)          4080.8674         3447.0002                                                                 
  2936   147.9658    3760(121)          3996.2544         3450.6709                                                                 
  2937   148.0158    3725(121)          3923.7214         3454.3413                                                                 
  2938   148.0658    3752(121)          3862.0054         3458.0117                                                                 
  2939   148.1158    3509(118)          3809.8953         3461.6812                                                                 
  2940   148.1658    3447(117)          3766.1958         3465.3518                                                                 
  2941   148.2158    3539(119)          3729.8367         3469.0222                                                                 
  2942   148.2658    3543(119)          3699.8186         3472.6929                                                                 
  2943   148.3158    3373(116)          3675.2344         3476.3633                                                                 
  2944   148.3658    3336(116)          3655.2791         3480.0327                                                                 
  2945   148.4158    3390(117)          3639.2224         3483.7031                                                                 
  2946   148.4658    3410(118)          3626.4438         3487.3738                                                                 
  2947   148.5158    3437(119)          3616.3997         3491.0442                                                                 
  2948   148.5658    3413(119)          3608.6238         3494.7148                                                                 
  2949   148.6158    3610(122)          3602.7217         3498.3843                                                                 
  2950   148.6658    3503(121)          3598.3562         3502.0547                                                                 
  2951   148.7158    3533(121)          3595.2502         3505.7251                                                                 
  2952   148.7658    3593(123)          3593.1729         3509.3958                                                                 
  2953   148.8158    3454(121)          3591.9326         3513.0664                                                                 
  2954   148.8658    3512(122)          3591.3508         3516.7356                                                                 
  2955   148.9158    3715(126)          3591.3455         3520.4062                                                                 
  2956   148.9658    3577(124)          3591.7905         3524.0767                                                                 
  2957   149.0158    3690(126)          3592.6035         3527.7471                                                                 
  2958   149.0658    3632(125)          3593.7175         3531.4177                                                                 
  2959   149.1158    3600(125)          3595.0789         3535.0872                                                                 
  2960   149.1658    3521(124)          3596.6453         3538.7576                                                                 
  2961   149.2158    3603(126)          3598.3831         3542.4282                                                                 
  2962   149.2658    3690(127)          3600.2646         3546.0986                                                                 
  2963   149.3158    3650(127)          3602.2690         3549.7693                                                                 
  2964   149.3658    3603(127)          3604.3774         3553.4385                                                                 
  2965   149.4158    3641(128)          3606.5784         3557.1091                                                                 
  2966   149.4658    3790(130)          3608.8567         3560.7798                                                                 
  2967   149.5158    3680(129)          3611.2092         3564.4502                                                                 
  2968   149.5658    3677(129)          3613.4768         3568.1206                                                                 
  2969   149.6158    3734(130)          3615.9512         3571.7900                                                                 
  2970   149.6658    3759(131)          3614.8828         3571.8640                                                                 
  2971   149.7158    3664(130)          3613.7893         3571.8640                                                                 
  2972   149.7658    3721(131)          3612.7407         3571.8640                                                                 
  2973   149.8158    3795(133)          3611.7322         3571.8640                                                                 
  2974   149.8658    3703(132)          3610.7656         3571.8640                                                                 
  2975   149.9158    3853(134)          3571.8640         3571.8640                                                                 
_pd_proc_number_of_points   2799
 
 
# The following lines are used to test the character set of files sent by     
# network email or other means. They are not part of the CIF data set.        
# abcdefghijklmnopqrstuvwxyzABCDEFGHIJKLMNOPQRSTUVWXYZ0123456789              
# !@#$%^&*()_+{}:"~<>?|\-=[];'`,./ 




_cell_formula_units_Z
2
_diffrn_source
'nuclear reactor'
_cell_length_a
3.94590(5)
_cell_length_b
5.6366(2)
_cell_length_c
5.64259(20)
_chemical_formula_analytical
K0.48Na0.48Li0.04Nb0.98Mn0.02O3
_diffrn_radiation_type
'neutron'
_publ_contact_author_email
manuel.hinterstein@gmail.com
_symmetry_space_group_name_Hall
'A 2 -2'
_chemical_formula_weight
170.23144
_refine_ls_number_restraints
0
_computing_structure_refinement
FULLPROF
_database_code_depnum_ccdc_archive
'CCDC 1828074'
_symmetry_space_group_name_H-M
'A m m 2'
_cell_angle_gamma
90.0000
_cell_measurement_temperature
300
_pd_char_colour
grey
_refine_ls_number_reflns
86
_diffrn_source_type
'FRMII/SPODI'
_publ_requested_journal
J.Appl.Crystallogr.
_pd_meas_number_of_points
3014
_cell_volume
125.500(7)
_publcif_datablock.id
'{d5f9e3f5-70ad-42d7-baff-8cab751434f3}'
_symmetry_cell_setting
Orthorhombic
_diffrn_ambient_temperature
300
_chemical_name_common
KNN
_refine_ls_R_I_factor
0.023196
_diffrn_measurement_device_type
'powder diffractometer'
_publ_contact_author_name
'Manuel Hinterstein'
_cell_angle_alpha
90.0000
_refine_ls_number_parameters
66
_chemical_formula_sum
K0.48Na0.48Li0.04Nb0.98Mn0.02O3
_cell_angle_beta
90.0000
_pd_proc_wavelength
1.547994
loop_
_publ_author_name
_publ_author_address

;Hinterstein, Manuel
;


loop_
_atom_type_symbol
_atom_type_scat_length_neutron
_atom_type_scat_source
O 0.58030 V.F._Sears_Neutron_News_3_26_(1992)
Na 0.36300 V.F._Sears_Neutron_News_3_26_(1992)
K 0.36700 V.F._Sears_Neutron_News_3_26_(1992)
Li -0.19000 V.F._Sears_Neutron_News_3_26_(1992)
Nb 0.70540 V.F._Sears_Neutron_News_3_26_(1992)
Mn -0.37300 V.F._Sears_Neutron_News_3_26_(1992)

loop_
_symmetry_equiv_pos_as_xyz
x,y,z
-x,y,z
x,-y,z
-x,-y,z
x,y+1/2,z+1/2
-x,y+1/2,z+1/2
x,-y+1/2,z+1/2
-x,-y+1/2,z+1/2

loop_
_atom_site_label
_atom_site_fract_x
_atom_site_fract_y
_atom_site_fract_z
_atom_site_u_iso_or_equiv
_atom_site_occupancy
_atom_site_adp_type
_atom_site_type_symbol
O1 0.50000 0.25000 0.248(3) 0.0088(5) 1.00000 Uiso O
O2 0.00000 0.00000 0.523(2) 0.0028(8) 1.00000 Uiso O
Na1 0.00000 0.00000 0.00000 0.0120(9) 0.48000 Uiso Na
K1 0.00000 0.00000 0.00000 0.0120(9) 0.48000 Uiso K
Li1 0.00000 0.00000 0.00000 0.0120(9) 0.04000 Uiso Li
Nb1 0.50000 0.00000 0.489(2) 0.0035(4) 0.98000 Uiso Nb
Mn1 0.50000 0.00000 0.489(2) 0.0035(4) 0.02000 Uiso Mn



loop_
_refln_index_h
_refln_index_k
_refln_index_l
_refln_mult
_pd_refln_phase_id
_refln_observed_status
_refln_f_squared_meas
_refln_f_squared_calc
_refln_phase_calc
_refln_d_spacing
0 1 1 4 1 o 5.0548 3.3437 182.12 3.98781
1 0 0 2 1 o 4.3853 3.3320 180.00 3.94590
0 0 2 2 1 o 1.2782 0.7422 12.29 2.82130
0 2 0 2 1 o 1.3225 0.8143 0.00 2.81831
1 1 1 8 1 o 1.1372 0.8374 343.34 2.80487
1 0 2 4 1 o 10.5480 7.3309 9.95 2.29501
1 2 0 4 1 o 9.9457 7.2918 0.00 2.29341
0 2 2 4 1 o 39.8828 28.0464 0.88 1.99390
2 0 0 2 1 o 38.2938 28.6529 0.00 1.97295
0 1 3 4 1 o 4.4843 2.9493 186.34 1.78416
0 3 1 4 1 o 4.8148 3.3419 182.10 1.78265
1 2 2 8 1 o 4.9028 3.5274 162.51 1.77961
2 1 1 8 1 o 4.3418 3.3418 182.10 1.76836
1 1 3 8 1 o 2.3568 1.3784 319.68 1.62570
1 3 1 8 1 o 1.1998 0.7562 342.72 1.62456
2 0 2 4 1 o 0.9980 0.7747 11.80 1.61683
2 2 0 4 1 o 1.0906 0.8488 360.00 1.61627
0 0 4 2 1 o 39.3751 24.5034 1.65 1.41065
0 4 0 2 1 o 38.8371 26.8829 0.00 1.40916
2 2 2 8 1 o 33.6754 26.2341 0.92 1.40244
0 3 3 4 1 o 4.9115 2.9475 186.29 1.32927
1 0 4 4 1 o 6.5317 4.4736 149.32 1.32832
1 4 0 4 1 o 3.9717 2.8716 180.00 1.32707
2 1 3 8 1 o 3.7019 2.9474 186.29 1.32331
2 3 1 8 1 o 4.1099 3.3338 182.08 1.32270
3 0 0 2 1 o 3.4490 2.8629 180.00 1.31530
0 2 4 4 1 o 1.1179 0.6093 25.14 1.26146
0 4 2 4 1 o 1.3865 0.8045 11.37 1.26065
1 3 3 8 1 o 2.1547 1.2829 318.66 1.25971
3 1 1 8 1 o 1.0149 0.6804 342.05 1.24911
1 2 4 8 1 o 9.4160 6.1957 20.79 1.20155
1 4 2 8 1 o 8.7463 6.0727 10.68 1.20086
3 0 2 4 1 o 7.7574 6.0497 10.69 1.19211
3 2 0 4 1 o 7.7266 6.0003 0.00 1.19189
2 0 4 4 1 o 33.6948 22.9046 1.73 1.14751
2 4 0 4 1 o 31.1972 25.1695 0.00 1.14670
0 1 5 4 1 o 3.2728 2.2645 190.53 1.10656
0 5 1 4 1 o 4.3320 3.3207 182.07 1.10548
2 3 3 8 1 o 3.6984 2.9402 186.24 1.10240
3 2 2 8 1 o 3.5912 3.0566 161.86 1.09793
1 1 5 8 1 o 4.2802 2.2516 308.18 1.06546
1 5 1 8 1 o 0.9969 0.6175 341.41 1.06449
2 2 4 8 1 o 1.0173 0.6337 24.13 1.06279
2 4 2 8 1 o 1.2781 0.8340 10.96 1.06231
3 1 3 8 1 o 1.6419 1.1922 317.60 1.05870
3 3 1 8 1 o 0.8403 0.6150 341.38 1.05839
0 4 4 4 1 o 28.2832 21.4789 1.81 0.99695
4 0 0 2 1 o 31.5175 23.5176 0.00 0.98648
0 3 5 4 1 o 3.4491 2.2633 190.44 0.96743
0 5 3 4 1 o 4.3407 2.9286 186.20 0.96694
1 4 4 8 1 o 5.7887 3.9526 148.41 0.96658
2 1 5 8 1 o 2.8371 2.2632 190.44 0.96512
2 5 1 8 1 o 3.9726 3.3019 182.06 0.96441
3 0 4 4 1 o 4.4072 3.9427 148.39 0.96200
3 4 0 4 1 o 2.7035 2.4635 180.00 0.96153
4 1 1 8 1 o 4.4532 3.3007 182.06 0.95761
0 0 6 2 1 o 0.6523 0.4111 41.86 0.94043
1 3 5 8 1 o 3.8395 2.1338 307.33 0.93960
0 6 0 2 1 o 1.3902 0.9393 0.00 0.93944
1 5 3 8 1 o 1.9276 1.1158 316.62 0.93916
3 3 3 8 1 o 1.5157 1.1127 316.58 0.93496
4 0 2 4 1 o 1.2935 0.8630 10.57 0.93119
4 2 0 4 1 o 1.4243 0.9415 0.00 0.93109
1 0 6 4 1 o 9.1700 5.3547 31.89 0.91481
1 6 0 4 1 o 7.4627 4.9794 360.00 0.91389
3 2 4 8 1 o 6.7489 5.1652 22.27 0.91042
3 4 2 8 1 o 6.4371 5.0175 11.46 0.91012
0 2 6 4 1 o 25.4011 17.7953 2.32 0.89208
0 6 2 4 1 o 28.6205 21.6534 1.04 0.89132
2 4 4 8 1 o 25.9701 20.0993 1.89 0.88980
4 2 2 8 1 o 27.5381 21.5421 1.05 0.88418
1 2 6 8 1 o 6.9776 5.2853 140.41 0.87012
1 6 2 8 1 o 3.3114 2.6619 161.19 0.86942
2 3 5 8 1 o 2.8363 2.2580 190.37 0.86862
2 5 3 8 1 o 3.5940 2.9119 186.17 0.86827
4 1 3 8 1 o 3.7117 2.9107 186.16 0.86330
4 3 1 8 1 o 4.1989 3.2773 182.05 0.86313
2 0 6 4 1 o 0.9877 0.4251 40.09 0.84892
2 6 0 4 1 o 1.7207 0.9666 0.00 0.84819
3 1 5 8 1 o 2.7403 2.0200 306.46 0.84676
3 5 1 8 1 o 0.5686 0.5031 339.98 0.84627
2 2 6 8 1 o 23.5011 16.6249 2.44 0.81285
2 6 2 8 1 o 26.7375 20.2984 1.09 0.81228
4 0 4 4 1 o 22.9090 18.7698 1.98 0.80842
4 4 0 4 1 o 25.1482 20.7260 0.00 0.80813



# powder data simulated using PLATON:

data_orthorhombic_1_ND_simulated_1.5482

_publcif_pd_cifplot 'simulated 2021-03-25'

