data_KNN05at200K 

_pd_block_id     KNN05at200K
_pd_proc_2theta_range_min  15 
_pd_proc_2theta_range_max 145
_pd_proc_ls_background_function   'Chebychev with six coefficients' 

loop_
      
_pd_data_point_id                           
      
_pd_meas_2theta_corrected     
_pd_meas_intensity_total                     
      
_pd_calc_intensity_total                     
      
_pd_proc_ls_weight     
1	15	120.526	121.07383	0.008296965
2	15.05	118.419	121.05923	0.008444591
3	15.1	119.899	121.04459	0.008340353
4	15.15	121.946	121.02992	0.008200351
5	15.2	117.289	121.01522	0.008525949
6	15.25	114.947	121.00048	0.008699662
7	15.3	117.742	120.98572	0.008493146
8	15.35	123.983	120.97093	0.008065622
9	15.4	122.933	120.95612	0.008134512
10	15.45	126.287	120.94128	0.007918471
11	15.5	114.581	120.92643	0.00872745
12	15.55	115.66	120.91156	0.008646031
13	15.6	116.994	120.89667	0.008547447
14	15.65	123.986	120.88178	0.008065427
15	15.7	121.689	120.86687	0.00821767
16	15.75	120.072	120.85196	0.008328336
17	15.8	113.098	120.83704	0.008841889
18	15.85	116.508	120.82213	0.008583102
19	15.9	122.649	120.80721	0.008153348
20	15.95	119.805	120.79231	0.008346897
21	16	120.357	120.77741	0.008308615
22	16.05	116.584	120.76252	0.008577506
23	16.1	120.667	120.74764	0.00828727
24	16.15	118.956	120.73279	0.00840647
25	16.2	120.315	120.71796	0.008311516
26	16.25	122.059	120.70315	0.008192759
27	16.3	114.958	120.68837	0.008698829
28	16.35	111.663	120.67363	0.008955518
29	16.4	114.318	120.65892	0.008747529
30	16.45	116.974	120.64425	0.008548908
31	16.5	119.727	120.62963	0.008352335
32	16.55	121.395	120.61505	0.008237572
33	16.6	123.002	120.60053	0.008129949
34	16.65	124.534	120.58607	0.008029936
35	16.7	123.767	120.57168	0.008079698
36	16.75	117.755	120.55734	0.008492208
37	16.8	124.133	120.54309	0.008055876
38	16.85	125.384	120.52891	0.007975499
39	16.9	116.554	120.51481	0.008579714
40	16.95	119.948	120.5008	0.008336946
41	17	123.077	120.48689	0.008124995
42	17.05	122.17	120.47308	0.008185316
43	17.1	118.457	120.45938	0.008441882
44	17.15	110.863	120.44578	0.009020142
45	17.2	115.491	120.43231	0.008658683
46	17.25	118.119	120.41897	0.008466038
47	17.3	119.681	120.40576	0.008355545
48	17.35	120.476	120.39269	0.008300408
49	17.4	121.872	120.37977	0.00820533
50	17.45	126.121	120.36701	0.007928894
51	17.5	124.125	120.35441	0.008056395
52	17.55	123.915	120.34199	0.008070048
53	17.6	122.932	120.32977	0.008134578
54	17.65	119.905	120.31786	0.008339936
55	17.7	118.998	120.3063	0.008403503
56	17.75	118.153	120.29513	0.008463602
57	17.8	120.468	120.28442	0.00830096
58	17.85	120.538	120.27422	0.008296139
59	17.9	123.651	120.26466	0.008087278
60	17.95	121.905	120.25591	0.008203109
61	18	124.264	120.24833	0.008047383
62	18.05	120.524	120.24293	0.008297103
63	18.1	120.905	120.24524	0.008270957
64	18.15	117.734	120.23601	0.008493723
65	18.2	116.206	120.22718	0.008605408
66	18.25	122.113	120.21878	0.008189136
67	18.3	116.743	120.21086	0.008565824
68	18.35	120.565	120.20346	0.008294281
69	18.4	120.951	120.19667	0.008267811
70	18.45	119.024	120.19062	0.008401667
71	18.5	124.952	120.18563	0.008003073
72	18.55	118.334	120.18369	0.008450657
73	18.6	124.143	120.17943	0.008055227
74	18.65	124.263	120.17429	0.008047448
75	18.7	120.029	120.16967	0.00833132
76	18.75	121.604	120.16561	0.008223414
77	18.8	114.625	120.16214	0.0087241
78	18.85	121.449	120.15928	0.008233909
79	18.9	115.948	120.15706	0.008624556
80	18.95	120.08	120.15552	0.008327781
81	19	126.444	120.15468	0.007908639
82	19.05	120.816	120.1546	0.008277049
83	19.1	121.173	120.1553	0.008252664
84	19.15	113.188	120.15682	0.008834859
85	19.2	116.625	120.15921	0.008574491
86	19.25	118.726	120.16252	0.008422755
87	19.3	133.633	120.16679	0.007483182
88	19.35	119.487	120.17207	0.008369111
89	19.4	123.583	120.17842	0.008091728
90	19.45	123.681	120.1859	0.008085316
91	19.5	123.288	120.19456	0.008111089
92	19.55	125.981	120.20448	0.007937705
93	19.6	126.729	120.21572	0.007890854
94	19.65	122.567	120.22837	0.008158803
95	19.7	117.726	120.24249	0.0084943
96	19.75	118.751	120.25819	0.008420982
97	19.8	120.368	120.27554	0.008307856
98	19.85	112.898	120.29464	0.008857553
99	19.9	118.607	120.31562	0.008431206
100	19.95	117.877	120.33856	0.008483419
101	20	124.144	120.36361	0.008055162
102	20.05	120.377	120.39089	0.008307235
103	20.1	119.15	120.42054	0.008392782
104	20.15	118.119	120.45272	0.008466038
105	20.2	124.954	120.48759	0.008002945
106	20.25	115.902	120.52532	0.008627979
107	20.3	124.593	120.56613	0.008026133
108	20.35	121.85	120.6102	0.008206812
109	20.4	118.799	120.65778	0.008417579
110	20.45	121.118	120.70911	0.008256411
111	20.5	121.555	120.76446	0.008226729
112	20.55	112.341	120.82412	0.00890147
113	20.6	115.702	120.88842	0.008642893
114	20.65	111.61	120.95771	0.008959771
115	20.7	114.99	121.03237	0.008696408
116	20.75	114.779	121.11284	0.008712395
117	20.8	115.492	121.19957	0.008658608
118	20.85	120.188	121.29308	0.008320298
119	20.9	120.65	121.39394	0.008288438
120	20.95	120.6	121.50277	0.008291874
121	21	119.424	121.62029	0.008373526
122	21.05	116.146	121.74725	0.008609853
123	21.1	123.062	121.88453	0.008125985
124	21.15	120.889	122.03308	0.008272051
125	21.2	122.671	122.194	0.008151886
126	21.25	123.587	122.3685	0.008091466
127	21.3	120.414	122.55795	0.008304682
128	21.35	121.937	122.76388	0.008200956
129	21.4	123.668	122.98807	0.008086166
130	21.45	124.176	123.23249	0.008053086
131	21.5	119.167	123.49943	0.008391585
132	21.55	125.049	123.7915	0.007996865
133	21.6	122.23	124.1117	0.008181298
134	21.65	120.287	124.46351	0.00831345
135	21.7	123.566	124.85095	0.008092841
136	21.75	126.318	125.27873	0.007916528
137	21.8	125.94	125.75238	0.007940289
138	21.85	126.891	126.2784	0.00788078
139	21.9	125.064	126.86454	0.007995906
140	21.95	126.412	127.52006	0.007910641
141	22	124.945	128.25611	0.008003522
142	22.05	141.645	129.08628	0.007059903
143	22.1	140.826	130.02732	0.007100961
144	22.15	141.614	131.10035	0.007061449
145	22.2	145.926	132.33306	0.006852788
146	22.25	144.842	133.76429	0.006904075
147	22.3	153.983	135.45342	0.006494223
148	22.35	157.829	137.49897	0.006335971
149	22.4	154.658	140.07127	0.00646588
150	22.45	165.891	143.4616	0.006028055
151	22.5	173.129	148.14262	0.00577604
152	22.55	180.587	154.82241	0.005537497
153	22.6	185.45	164.46409	0.005392289
154	22.65	194.866	178.24082	0.005131732
155	22.7	202.629	197.40602	0.004935128
156	22.75	220.954	223.09741	0.004525829
157	22.8	246.287	256.19359	0.004060304
158	22.85	258.304	297.38953	0.003871407
159	22.9	291.252	347.49784	0.003433453
160	22.95	331.798	407.85793	0.003013882
161	23	386.104	480.77049	0.002589976
162	23.05	455.404	569.84251	0.002195852
163	23.1	528.195	679.92839	0.00189324
164	23.15	639.275	816.07674	0.001564272
165	23.2	793.585	980.83215	0.001260104
166	23.25	984.372	1169.83593	0.001015876
167	23.3	1218.615	1367.03771	0.000820604
168	23.35	1417.462	1542.1664	0.000705486
169	23.4	1558.732	1653.24635	0.000641547
170	23.45	1623.791	1657.03817	0.000615843
171	23.5	1576.622	1531.62726	0.000634267
172	23.55	1372.957	1301.16519	0.000728355
173	23.6	1107.255	1026.28967	0.000903134
174	23.65	870.826	765.19305	0.001148335
175	23.7	697.17	552.11905	0.00143437
176	23.75	559.281	397.7632	0.00178801
177	23.8	453.527	296.61624	0.00220494
178	23.85	375.453	235.42377	0.002663449
179	23.9	310.998	200.15819	0.003215455
180	23.95	258.916	179.86556	0.003862256
181	24	219.919	167.53874	0.004547129
182	24.05	196.493	159.32049	0.00508924
183	24.1	161.74	153.30538	0.006182762
184	24.15	154.448	148.60048	0.006474671
185	24.2	141.063	144.77554	0.007089031
186	24.25	131.256	141.59805	0.007618699
187	24.3	130.128	138.9225	0.007684741
188	24.35	127.51	136.64707	0.007842522
189	24.4	119.783	134.69612	0.00834843
190	24.45	121.861	133.01237	0.008206071
191	24.5	124.021	131.55512	0.008063151
192	24.55	122.356	130.28877	0.008172873
193	24.6	127.425	129.14933	0.007847754
194	24.65	120.662	128.13897	0.008287613
195	24.7	120.92	127.23854	0.008269931
196	24.75	119.698	126.43228	0.008354358
197	24.8	127.33	125.70717	0.007853609
198	24.85	121.021	125.05235	0.008263029
199	24.9	129.625	124.45873	0.007714561
200	24.95	120.911	123.91864	0.008270546
201	25	121.776	123.42557	0.008211799
202	25.05	126.617	122.97398	0.007897834
203	25.1	122.648	122.5591	0.008153415
204	25.15	119.814	122.17686	0.00834627
205	25.2	121.679	121.82371	0.008218345
206	25.25	124.147	121.49659	0.008054967
207	25.3	124.08	121.19283	0.008059317
208	25.35	116.156	120.91008	0.008609112
209	25.4	113.989	120.6463	0.008772776
210	25.45	120.691	120.39969	0.008285622
211	25.5	122.623	120.16883	0.008155077
212	25.55	123.195	119.95243	0.008117213
213	25.6	123.006	119.74932	0.008129685
214	25.65	115.855	119.55853	0.008631479
215	25.7	115.962	119.37932	0.008623515
216	25.75	120.432	119.21132	0.008303441
217	25.8	122.303	119.05556	0.008176414
218	25.85	123.81	118.91525	0.008076892
219	25.9	113.438	118.769	0.008815388
220	25.95	113.312	118.62987	0.008825191
221	26	122.748	118.49733	0.008146772
222	26.05	111.405	118.37088	0.008976258
223	26.1	122.376	118.25011	0.008171537
224	26.15	121.067	118.13459	0.008259889
225	26.2	121.961	118.02399	0.008199342
226	26.25	126.063	117.91825	0.007932542
227	26.3	117.747	117.81731	0.008492785
228	26.35	120.186	117.72103	0.008320437
229	26.4	112.458	117.62939	0.008892209
230	26.45	113.098	117.54258	0.008841889
231	26.5	117.766	117.46129	0.008491415
232	26.55	121.114	117.38829	0.008256684
233	26.6	119.926	117.33066	0.008338475
234	26.65	120.011	117.25243	0.00833257
235	26.7	122.719	117.17678	0.008148697
236	26.75	118.231	117.10357	0.008458019
237	26.8	121.915	117.03266	0.008202436
238	26.85	120.55	116.96393	0.008295313
239	26.9	117.825	116.89726	0.008487163
240	26.95	116.678	116.83255	0.008570596
241	27	118.557	116.76969	0.008434761
242	27.05	113.837	116.70861	0.00878449
243	27.1	115.497	116.6492	0.008658234
244	27.15	115.7	116.5914	0.008643042
245	27.2	116.88	116.53513	0.008555784
246	27.25	115.911	116.48031	0.008627309
247	27.3	117.292	116.4269	0.008525731
248	27.35	123.075	116.37481	0.008125127
249	27.4	117.997	116.32401	0.008474792
250	27.45	109.783	116.27443	0.009108878
251	27.5	115.415	116.22604	0.008664385
252	27.55	116.636	116.17878	0.008573682
253	27.6	115.417	116.13261	0.008664235
254	27.65	118.907	116.08749	0.008409934
255	27.7	118.674	116.04339	0.008426446
256	27.75	117.618	116.00027	0.0085021
257	27.8	118.267	115.95811	0.008455444
258	27.85	116.895	115.91687	0.008554686
259	27.9	117.26	115.87652	0.008528057
260	27.95	113.722	115.83704	0.008793373
261	28	118.638	115.79841	0.008429003
262	28.05	115.582	115.76061	0.008651866
263	28.1	110.634	115.72361	0.009038813
264	28.15	116.944	115.6874	0.008551101
265	28.2	115.275	115.65197	0.008674908
266	28.25	115.645	115.61729	0.008647153
267	28.3	118.065	115.58335	0.008469911
268	28.35	118.518	115.55015	0.008437537
269	28.4	114.32	115.51767	0.008747376
270	28.45	110.771	115.48591	0.009027634
271	28.5	113.56	115.45485	0.008805918
272	28.55	117.187	115.42449	0.00853337
273	28.6	114.201	115.39483	0.008756491
274	28.65	118.518	115.36585	0.008437537
275	28.7	113.733	115.33757	0.008792523
276	28.75	117.258	115.30998	0.008528203
277	28.8	118.148	115.28307	0.00846396
278	28.85	119.844	115.25686	0.008344181
279	28.9	112.192	115.23133	0.008913292
280	28.95	115.706	115.20651	0.008642594
281	29	120.846	115.18239	0.008274995
282	29.05	119.479	115.15898	0.008369672
283	29.1	114.881	115.13629	0.00870466
284	29.15	112.536	115.11433	0.008886045
285	29.2	120.165	115.09312	0.008321891
286	29.25	119.589	115.07265	0.008361973
287	29.3	114.844	115.05296	0.008707464
288	29.35	117.252	115.03406	0.008528639
289	29.4	118.496	115.01596	0.008439103
290	29.45	118.292	114.99869	0.008453657
291	29.5	114.964	114.98227	0.008698375
292	29.55	109.475	114.96673	0.009134506
293	29.6	115.201	114.95209	0.00868048
294	29.65	117.889	114.93838	0.008482556
295	29.7	117.151	114.92565	0.008535992
296	29.75	116.702	114.91392	0.008568833
297	29.8	113.719	114.90323	0.008793605
298	29.85	112.588	114.89363	0.008881941
299	29.9	114.392	114.88517	0.00874187
300	29.95	118.286	114.87789	0.008454086
301	30	122.273	114.87185	0.00817842
302	30.05	119.395	114.86711	0.00837556
303	30.1	117.071	114.86374	0.008541825
304	30.15	116.854	114.86181	0.008557687
305	30.2	115.393	114.86139	0.008666037
306	30.25	118.966	114.86258	0.008405763
307	30.3	119.74	114.86546	0.008351428
308	30.35	120.357	114.87013	0.008308615
309	30.4	115.658	114.87671	0.008646181
310	30.45	120.513	114.88531	0.00829786
311	30.5	117.732	114.89608	0.008493867
312	30.55	117.315	114.90915	0.008524059
313	30.6	113.019	114.92468	0.00884807
314	30.65	112.469	114.94285	0.008891339
315	30.7	114.004	114.96385	0.008771622
316	30.75	116.403	114.98789	0.008590844
317	30.8	112.276	115.01521	0.008906623
318	30.85	117.399	115.04608	0.00851796
319	30.9	117.668	115.08077	0.008498487
320	30.95	117.173	115.11962	0.008534389
321	31	109.812	115.16297	0.009106473
322	31.05	112.858	115.21124	0.008860692
323	31.1	117.569	115.26487	0.008505643
324	31.15	122.796	115.32436	0.008143588
325	31.2	117.514	115.39028	0.008509624
326	31.25	117.188	115.46327	0.008533297
327	31.3	119.058	115.54406	0.008399268
328	31.35	121.265	115.63347	0.008246403
329	31.4	116.369	115.73244	0.008593354
330	31.45	117.455	115.84206	0.008513899
331	31.5	118.528	115.96355	0.008436825
332	31.55	121.217	116.09834	0.008249668
333	31.6	119.48	116.24809	0.008369602
334	31.65	120.073	116.41472	0.008328267
335	31.7	120.434	116.60049	0.008303303
336	31.75	119.721	116.80804	0.008352753
337	31.8	114.944	117.0405	0.008699889
338	31.85	121.254	117.30161	0.008247151
339	31.9	120.289	117.59584	0.008313312
340	31.95	116.48	117.92857	0.008585165
341	32	124.326	118.30638	0.00804337
342	32.05	120.249	118.73731	0.008316077
343	32.1	124.304	119.23136	0.008044793
344	32.15	124.425	119.80112	0.00803697
345	32.2	127.165	120.46284	0.007863799
346	32.25	122.721	121.23848	0.008148565
347	32.3	124.709	122.1599	0.008018667
348	32.35	130.727	123.27772	0.007649529
349	32.4	135.11	124.67863	0.007401377
350	32.45	124.315	126.5159	0.008044082
351	32.5	123.35	129.05522	0.008107013
352	32.55	132.476	132.732	0.007548537
353	32.6	144.356	138.20797	0.006927319
354	32.65	149.951	146.41034	0.006668845
355	32.7	155.325	158.54046	0.006438114
356	32.75	163.754	176.04867	0.006106721
357	32.8	184.118	200.60166	0.005431299
358	32.85	209.126	234.0872	0.004781806
359	32.9	250.249	278.53992	0.00399602
360	32.95	295.735	335.60872	0.003381406
361	33	352.918	405.24793	0.002833519
362	33.05	437.634	483.81336	0.002285014
363	33.1	507.878	562.42449	0.001968977
364	33.15	591.861	626.81497	0.001689586
365	33.2	640.697	659.89754	0.0015608
366	33.25	651.102	649.13737	0.001535858
367	33.3	603.839	598.0147	0.001656071
368	33.35	523.476	527.62741	0.001910307
369	33.4	458.168	461.88877	0.002182606
370	33.45	427.716	414.89185	0.002338
371	33.5	407.471	389.06081	0.002454162
372	33.55	399.582	377.61109	0.002502615
373	33.6	386.297	368.64334	0.002588682
374	33.65	366.373	350.54304	0.002729459
375	33.7	335.516	318.39294	0.002980484
376	33.75	272.222	276.79462	0.003673472
377	33.8	228.195	234.52088	0.004382217
378	33.85	196.171	198.215	0.005097593
379	33.9	173.346	170.76348	0.005768809
380	33.95	153.315	152.06034	0.006522519
381	34	139.687	140.30731	0.007158862
382	34.05	134.072	133.25584	0.007458679
383	34.1	129.056	129.01066	0.007748574
384	34.15	118.77	126.30304	0.008419635
385	34.2	122.438	124.41371	0.008167399
386	34.25	111.685	122.97974	0.008953754
387	34.3	110.898	121.82754	0.009017295
388	34.35	112.649	120.87124	0.008877132
389	34.4	114.568	120.06289	0.008728441
390	34.45	120.72	119.37156	0.008283632
391	34.5	112.747	118.77504	0.008869416
392	34.55	115.226	118.2565	0.008678597
393	34.6	113.579	117.80281	0.008804444
394	34.65	112.589	117.40357	0.008881862
395	34.7	117.748	117.05043	0.008492713
396	34.75	116.3	116.73665	0.008598452
397	34.8	111.636	116.45669	0.008957684
398	34.85	118.217	116.20602	0.00845902
399	34.9	116.03	115.98087	0.008618461
400	34.95	111.059	115.77807	0.009004223
401	35	117.428	115.59498	0.008515857
402	35.05	114.943	115.42936	0.008699964
403	35.1	114.523	115.27931	0.00873187
404	35.15	114.258	115.14319	0.008752122
405	35.2	114.722	115.01963	0.008716724
406	35.25	109.085	114.90741	0.009167163
407	35.3	110.827	114.80551	0.009023072
408	35.35	115.064	114.71302	0.008690816
409	35.4	117.354	114.62918	0.008521226
410	35.45	113.089	114.55331	0.008842593
411	35.5	108.792	114.48483	0.009191852
412	35.55	116.248	114.42322	0.008602299
413	35.6	119.015	114.36805	0.008402302
414	35.65	114.295	114.31893	0.008749289
415	35.7	113.652	114.27552	0.008798789
416	35.75	114.245	114.23754	0.008753118
417	35.8	113.517	114.20475	0.008809253
418	35.85	111.936	114.17694	0.008933676
419	35.9	114.764	114.15393	0.008713534
420	35.95	113.457	114.13558	0.008813912
421	36	110.299	114.12177	0.009066265
422	36.05	117.695	114.11241	0.008496538
423	36.1	119.588	114.10744	0.008362043
424	36.15	120.342	114.10682	0.008309651
425	36.2	116.933	114.11053	0.008551906
426	36.25	112.154	114.11858	0.008916312
427	36.3	114.204	114.13098	0.008756261
428	36.35	114.953	114.14779	0.008699208
429	36.4	114.486	114.16908	0.008734692
430	36.45	113.917	114.19493	0.008778321
431	36.5	113.174	114.22546	0.008835952
432	36.55	115.161	114.26081	0.008683495
433	36.6	114.312	114.30113	0.008747988
434	36.65	111.153	114.34661	0.008996608
435	36.7	119.193	114.39748	0.008389754
436	36.75	118.459	114.45396	0.008441739
437	36.8	117.129	114.51634	0.008537595
438	36.85	119.345	114.58492	0.008379069
439	36.9	116.782	114.66006	0.008562963
440	36.95	111.578	114.74215	0.00896234
441	37	116.329	114.83162	0.008596309
442	37.05	116.238	114.92895	0.008603039
443	37.1	120.067	115.0347	0.008328683
444	37.15	116.171	115.14947	0.008608
445	37.2	119.558	115.27394	0.008364141
446	37.25	120.024	115.40887	0.008331667
447	37.3	127.474	115.55512	0.007844737
448	37.35	129.421	115.71365	0.007726721
449	37.4	126.256	115.88554	0.007920416
450	37.45	120.63	116.07199	0.008289812
451	37.5	125.899	116.2744	0.007942875
452	37.55	122.682	116.4943	0.008151155
453	37.6	119.625	116.73349	0.008359457
454	37.65	120.71	116.99396	0.008284318
455	37.7	120.466	117.27804	0.008301097
456	37.75	117.153	117.58838	0.008535846
457	37.8	123.931	117.92802	0.008069006
458	37.85	116.475	118.3005	0.008585533
459	37.9	114.775	118.70994	0.008712699
460	37.95	120.993	119.16112	0.008264941
461	38	124.973	119.6597	0.008001728
462	38.05	126.676	120.21231	0.007894155
463	38.1	126.678	120.82725	0.007894031
464	38.15	125.558	121.51444	0.007964447
465	38.2	126.97	122.28571	0.007875876
466	38.25	127.948	123.15616	0.007815675
467	38.3	127.18	124.15199	0.007862872
468	38.35	130.913	125.26757	0.007638661
469	38.4	128.658	126.53918	0.007772544
470	38.45	131.541	128.0026	0.007602192
471	38.5	128.655	129.69918	0.007772726
472	38.55	132.96	131.68314	0.007521059
473	38.6	132.147	134.02884	0.00756733
474	38.65	141.807	136.84611	0.007051838
475	38.7	142.485	140.3134	0.007018283
476	38.75	140.333	144.74583	0.007125908
477	38.8	145.707	150.7211	0.006863088
478	38.85	159.088	159.2839	0.006285829
479	38.9	168.237	172.23162	0.005943996
480	38.95	188.836	192.4555	0.0052956
481	39	214.947	224.27198	0.00465231
482	39.05	264.104	273.64895	0.003786387
483	39.1	330.1	347.98155	0.003029385
484	39.15	417.573	454.99906	0.002394791
485	39.2	532.865	600.45396	0.001876648
486	39.25	709.943	784.23708	0.001408564
487	39.3	917.444	995.1042	0.001089985
488	39.35	1149.719	1206.05914	0.000869778
489	39.4	1357.293	1373.92965	0.000736761
490	39.45	1448.729	1446.8945	0.00069026
491	39.5	1383.373	1386.98113	0.000722871
492	39.55	1192.162	1204.54862	0.000838812
493	39.6	937.107	959.80682	0.001067114
494	39.65	689.062	717.9129	0.001451248
495	39.7	507.19	518.52707	0.001971648
496	39.75	384.25	374.95002	0.002602472
497	39.8	310.252	282.52753	0.003223186
498	39.85	244.956	228.22181	0.004082366
499	39.9	212.205	198.22707	0.004712424
500	39.95	195.822	182.04005	0.005106679
501	40	181.198	173.23997	0.005518825
502	40.05	170.751	168.56385	0.005856481
503	40.1	163.819	166.70989	0.006104298
504	40.15	168.916	167.53208	0.005920102
505	40.2	176.644	171.69833	0.005661104
506	40.25	178.298	180.65165	0.005608588
507	40.3	196.655	196.6908	0.005085047
508	40.35	214.818	222.98713	0.004655103
509	40.4	242.57	263.29138	0.004122521
510	40.45	285.056	321.05583	0.003508083
511	40.5	352.772	397.82097	0.002834692
512	40.55	443.929	490.91039	0.002252612
513	40.6	561.628	591.01563	0.001780538
514	40.65	670.504	681.04586	0.001491415
515	40.7	732.583	737.88894	0.001365033
516	40.75	745.43	739.70526	0.001341508
517	40.8	700.233	681.32568	0.001428096
518	40.85	588.305	584.37705	0.001699799
519	40.9	467.631	482.57133	0.002138438
520	40.95	401.935	402.29287	0.002487964
521	41	370.431	358.28899	0.002699558
522	41.05	373.787	356.78831	0.00267532
523	41.1	405.157	399.28703	0.002468179
524	41.15	473.824	484.84774	0.002110488
525	41.2	598.62	609.64499	0.001670509
526	41.25	742.546	763.70091	0.001346718
527	41.3	917.706	926.66159	0.001089674
528	41.35	1094.172	1065.88648	0.000913933
529	41.4	1204.698	1140.20173	0.000830084
530	41.45	1185.345	1114.57581	0.000843636
531	41.5	1012.116	987.69115	0.000988029
532	41.55	794.381	801.73335	0.001258842
533	41.6	580.49	610.12881	0.001722683
534	41.65	422.384	447.97239	0.002367514
535	41.7	314.436	328.70298	0.003180297
536	41.75	251.698	250.3898	0.003973015
537	41.8	202.716	203.333	0.00493301
538	41.85	171.699	176.49419	0.005824146
539	41.9	154.402	161.15561	0.0064766
540	41.95	142.081	151.81568	0.007038239
541	42	130.222	145.52672	0.007679194
542	42.05	126.987	140.87703	0.007874822
543	42.1	127.134	137.21886	0.007865716
544	42.15	125.68	134.23881	0.007956715
545	42.2	121.108	131.76273	0.008257093
546	42.25	126.809	129.67831	0.007885876
547	42.3	117.3	127.90561	0.008525149
548	42.35	115.08	126.38478	0.008689607
549	42.4	116.213	125.06991	0.008604889
550	42.45	124.976	123.92523	0.008001536
551	42.5	118.105	122.92249	0.008467042
552	42.55	114.372	122.03917	0.008743399
553	42.6	113.945	121.25712	0.008776164
554	42.65	115.643	120.56159	0.008647302
555	42.7	109.711	119.94047	0.009114856
556	42.75	115.14	119.38378	0.008685079
557	42.8	119.719	118.88321	0.008352893
558	42.85	118.048	118.43179	0.00847113
559	42.9	115.728	118.02365	0.008640951
560	42.95	121.339	117.65382	0.008241373
561	43	122.41	117.31807	0.008169267
562	43.05	120.46	117.01277	0.008301511
563	43.1	112.386	116.73479	0.008897905
564	43.15	117.01	116.48146	0.008546278
565	43.2	119.391	116.25044	0.008375841
566	43.25	113.898	116.0397	0.008779785
567	43.3	117.304	115.84747	0.008524858
568	43.35	117.127	115.67221	0.008537741
569	43.4	116.405	115.51255	0.008590696
570	43.45	121.944	115.36732	0.008200485
571	43.5	123.409	115.23545	0.008103137
572	43.55	122.514	115.11604	0.008162332
573	43.6	127.524	115.00827	0.007841661
574	43.65	127.298	114.91142	0.007855583
575	43.7	121.589	114.82487	0.008224428
576	43.75	123.528	114.74805	0.008095331
577	43.8	122.557	114.68049	0.008159469
578	43.85	118.774	114.62176	0.008419351
579	43.9	125.181	114.57149	0.007988433
580	43.95	126.18	114.52936	0.007925186
581	44	123.837	114.4951	0.008075131
582	44.05	116.488	114.46847	0.008584575
583	44.1	115.296	114.44929	0.008673328
584	44.15	119.049	114.43739	0.008399903
585	44.2	118.611	114.43266	0.008430921
586	44.25	115.7	114.43502	0.008643042
587	44.3	117.356	114.4444	0.008521081
588	44.35	116.182	114.46087	0.008607185
589	44.4	122.046	114.48505	0.008193632
590	44.45	116.375	114.51758	0.008592911
591	44.5	115.103	114.56053	0.008687871
592	44.55	118.931	114.61654	0.008408237
593	44.6	123.589	114.6687	0.008091335
594	44.65	121.853	114.72833	0.00820661
595	44.7	122.823	114.79561	0.008141798
596	44.75	128.217	114.87075	0.007799278
597	44.8	117.218	114.95401	0.008531113
598	44.85	119.926	115.04567	0.008338475
599	44.9	118.113	115.14605	0.008466469
600	44.95	121.328	115.25553	0.008242121
601	45	119.554	115.3745	0.008364421
602	45.05	120.947	115.50343	0.008268084
603	45.1	119.111	115.64282	0.00839553
604	45.15	118.978	115.79325	0.008404915
605	45.2	119.987	115.95613	0.008334236
606	45.25	119.085	116.13312	0.008397363
607	45.3	118.149	116.32691	0.008463889
608	45.35	120.403	116.5511	0.008305441
609	45.4	121.253	116.76761	0.008247219
610	45.45	116.16	117.0004	0.008608815
611	45.5	117.607	117.25178	0.008502895
612	45.55	121.23	117.52432	0.008248783
613	45.6	121.228	117.82621	0.008248919
614	45.65	118.039	118.14933	0.008471776
615	45.7	119.071	118.48138	0.008398351
616	45.75	120.902	118.8384	0.008271162
617	45.8	124.974	119.22255	0.008001664
618	45.85	118.995	119.63627	0.008403714
619	45.9	127.697	120.08228	0.007831038
620	45.95	125.38	120.56364	0.007975754
621	46	120.174	121.0838	0.008321267
622	46.05	121.833	121.64667	0.008207957
623	46.1	120.329	122.25666	0.008310549
624	46.15	128.974	122.9188	0.007753501
625	46.2	123.444	123.63883	0.008100839
626	46.25	121.381	124.42331	0.008238522
627	46.3	126.322	125.27977	0.007916277
628	46.35	125.981	126.21689	0.007937705
629	46.4	124.3	127.24474	0.008045052
630	46.45	133.534	128.37499	0.007488729
631	46.5	125.981	129.62131	0.007937705
632	46.55	128.705	130.99969	0.007769706
633	46.6	135.657	132.52904	0.007371533
634	46.65	147.977	134.23176	0.006757807
635	46.7	158.373	136.13458	0.006314208
636	46.75	163.007	138.26961	0.006134706
637	46.8	169.564	140.67564	0.005897478
638	46.85	168.957	143.39993	0.005918666
639	46.9	175.075	146.5005	0.005711838
640	46.95	179.041	150.04913	0.005585313
641	47	186.62	154.13557	0.005358482
642	47.05	186.616	158.87311	0.005358597
643	47.1	177.592	164.40653	0.005630884
644	47.15	180.192	170.92386	0.005549636
645	47.2	188.773	178.67573	0.005297368
646	47.25	193.999	188.01212	0.005154666
647	47.3	192.594	199.46207	0.00519227
648	47.35	200.251	213.91471	0.004993733
649	47.4	223.405	233.01649	0.004476176
650	47.45	269.848	259.96728	0.00370579
651	47.5	316.411	300.9295	0.003160446
652	47.55	403.485	367.15761	0.002478407
653	47.6	526.888	477.55192	0.001897937
654	47.65	727.711	660.44128	0.001374172
655	47.7	1051.8	951.91254	0.000950751
656	47.75	1501.905	1386.63643	0.000665821
657	47.8	2099.16	1978.69317	0.000476381
658	47.85	2830.611	2696.90361	0.000353281
659	47.9	3573.414	3445.95605	0.000279844
660	47.95	4114.288	4064.75717	0.000243055
661	48	4343.127	4355.58768	0.000230249
662	48.05	3991.005	4174.81411	0.000250563
663	48.1	3268.794	3567.53013	0.000305923
664	48.15	2416.985	2757.32405	0.000413739
665	48.2	1703.127	1969.60763	0.000587155
666	48.25	1190.676	1332.31436	0.000839859
667	48.3	820.011	882.07657	0.001219496
668	48.35	578.002	597.0725	0.001730098
669	48.4	446.152	430.81271	0.002241389
670	48.45	342.651	337.51921	0.002918421
671	48.5	270.084	284.07059	0.003702552
672	48.55	239.896	250.91056	0.004168473
673	48.6	205.58	228.10305	0.004864286
674	48.65	181.453	211.03534	0.005511069
675	48.7	157.286	197.58332	0.006357845
676	48.75	141.19	186.67334	0.007082655
677	48.8	139.464	177.67111	0.007170309
678	48.85	124.799	170.15942	0.008012885
679	48.9	125.222	163.8256	0.007985817
680	48.95	122.975	158.43828	0.008131734
681	49	118.908	153.82011	0.008409863
682	49.05	121.569	149.83319	0.008225781
683	49.1	120.977	146.36911	0.008266034
684	49.15	123.797	143.34261	0.00807774
685	49.2	124.87	140.68594	0.008008329
686	49.25	127.047	138.35041	0.007871103
687	49.3	129.604	136.27421	0.007715811
688	49.35	126.447	134.41951	0.007908452
689	49.4	119.562	132.76173	0.008363861
690	49.45	126.413	131.27491	0.007910579
691	49.5	123.24	129.93725	0.008114249
692	49.55	120.167	128.73036	0.008321752
693	49.6	120.293	127.63867	0.008313036
694	49.65	116.005	126.64887	0.008620318
695	49.7	120.685	125.7496	0.008286034
696	49.75	118.127	124.93108	0.008465465
697	49.8	117.928	124.18487	0.00847975
698	49.85	118.336	123.50367	0.008450514
699	49.9	113.112	122.88112	0.008840795
700	49.95	121.291	122.31169	0.008244635
701	50	114.956	121.79054	0.00869898
702	50.05	116.443	121.31346	0.008587893
703	50.1	116.003	120.87673	0.008620467
704	50.15	111.743	120.47708	0.008949106
705	50.2	113.356	120.11167	0.008821765
706	50.25	117.657	119.77796	0.008499282
707	50.3	115.651	119.47376	0.008646704
708	50.35	115.989	119.19711	0.008621507
709	50.4	120.443	118.94632	0.008302683
710	50.45	119.934	118.71992	0.008337919
711	50.5	117.298	118.51661	0.008525295
712	50.55	115.652	118.33529	0.00864663
713	50.6	120.31	118.17504	0.008311861
714	50.65	114.564	118.03506	0.008728746
715	50.7	116.256	117.91472	0.008601707
716	50.75	116.469	117.81352	0.008585976
717	50.8	117.256	117.73111	0.008528348
718	50.85	116.725	117.66726	0.008567145
719	50.9	120.828	117.62186	0.008276227
720	50.95	118.991	117.59497	0.008403997
721	51	116.304	117.58675	0.008598157
722	51.05	115.091	117.59753	0.008688777
723	51.1	118.905	117.6278	0.008410075
724	51.15	119.872	117.67819	0.008342232
725	51.2	117.101	117.74955	0.008539637
726	51.25	114.108	117.84291	0.008763627
727	51.3	120.134	117.95953	0.008324038
728	51.35	116.561	118.10096	0.008579199
729	51.4	122.117	118.26902	0.008188868
730	51.45	118.264	118.46592	0.008455659
731	51.5	119.17	118.69425	0.008391374
732	51.55	122.322	118.95712	0.008175144
733	51.6	123.846	119.25823	0.008074544
734	51.65	121.373	119.60199	0.008239065
735	51.7	120.277	119.99367	0.008314142
736	51.75	122.243	120.43965	0.008180428
737	51.8	120.747	120.94761	0.008281779
738	51.85	123.324	121.52694	0.008108722
739	51.9	126.744	122.18913	0.00788992
740	51.95	125.666	122.94842	0.007957602
741	52	124.039	123.82258	0.008061981
742	52.05	121.665	124.83408	0.008219291
743	52.1	124.507	126.01161	0.008031677
744	52.15	122.456	127.39254	0.008166198
745	52.2	127.66	129.0269	0.007833307
746	52.25	128.697	130.98535	0.007770189
747	52.3	125.9	133.37703	0.007942812
748	52.35	130.91	136.39162	0.007638836
749	52.4	135.271	140.394	0.007392568
750	52.45	135.857	146.11634	0.007360681
751	52.5	154.63	154.99323	0.00646705
752	52.55	178.052	169.63234	0.005616337
753	52.6	204.556	194.2549	0.004888637
754	52.65	248.137	234.66463	0.004030032
755	52.7	301.521	297.02967	0.003316519
756	52.75	381.9	384.85152	0.002618487
757	52.8	507.58	494.51182	0.001970133
758	52.85	641.145	611.50417	0.00155971
759	52.9	731.923	709.89948	0.001366264
760	52.95	774.525	757.45305	0.001291114
761	53	728.585	731.5712	0.001372523
762	53.05	629.164	641.28394	0.001589411
763	53.1	479.515	522.68071	0.00208544
764	53.15	364.003	410.00669	0.00274723
765	53.2	285.952	321.88682	0.00349709
766	53.25	241.447	263.35128	0.004141696
767	53.3	222.839	231.3963	0.004487545
768	53.35	207.237	220.66949	0.004825393
769	53.4	223.766	227.99168	0.004468954
770	53.45	266.554	254.97795	0.003751585
771	53.5	332.138	308.73823	0.003010797
772	53.55	415.417	400.45112	0.00240722
773	53.6	558.865	540.93187	0.001789341
774	53.65	761.108	732.64511	0.001313874
775	53.7	984.131	960.18132	0.001016125
776	53.75	1235.986	1184.36572	0.000809071
777	53.8	1367.749	1345.05988	0.000731128
778	53.85	1415.782	1379.81271	0.000706323
779	53.9	1285.65	1267.11208	0.000777817
780	53.95	1031.977	1056.13374	0.000969014
781	54	806.009	826.75753	0.001240681
782	54.05	639.687	638.68141	0.001563265
783	54.1	554.316	521.43644	0.001804025
784	54.15	544.093	481.50919	0.001837921
785	54.2	582.178	509.74466	0.001717688
786	54.25	651.721	585.94419	0.001534399
787	54.3	746.133	680.84272	0.001340244
788	54.35	823.289	758.0016	0.00121464
789	54.4	822.978	780.37767	0.001215099
790	54.45	745.073	728.7177	0.00134215
791	54.5	598.371	619.9559	0.001671204
792	54.55	467.458	492.49917	0.00213923
793	54.6	349.764	377.10612	0.002859071
794	54.65	260.925	288.28091	0.003832519
795	54.7	213.19	227.83956	0.004690652
796	54.75	176.338	190.43638	0.005670927
797	54.8	155.295	168.57225	0.006439357
798	54.85	145.841	155.81731	0.006856782
799	54.9	135.068	147.91829	0.007403678
800	54.95	130.448	142.5277	0.00766589
801	55	130.247	138.50021	0.00767772
802	55.05	124.913	135.30591	0.008005572
803	55.1	118.784	132.6976	0.008418642
804	55.15	124.096	130.58249	0.008058277
805	55.2	116.98	128.73954	0.00854847
806	55.25	117.078	127.14952	0.008541314
807	55.3	119.215	125.77759	0.008388206
808	55.35	116.856	124.58513	0.008557541
809	55.4	118.751	123.54171	0.008420982
810	55.45	117.373	122.62329	0.008519847
811	55.5	114.474	121.81061	0.008735608
812	55.55	118.526	121.08797	0.008436967
813	55.6	120.09	120.44241	0.008327088
814	55.65	118.57	119.86279	0.008433837
815	55.7	111.827	119.33735	0.008942384
816	55.75	114.934	118.86195	0.008700646
817	55.8	118.917	118.44238	0.008409227
818	55.85	118.241	118.06311	0.008457303
819	55.9	119.122	117.71976	0.008394755
820	55.95	116.819	117.40857	0.008560251
821	56	112.595	117.12643	0.008881389
822	56.05	115.237	116.87652	0.008677768
823	56.1	115.687	116.67752	0.008644014
824	56.15	114.193	116.50386	0.008757104
825	56.2	118.387	116.31046	0.008446873
826	56.25	114.634	116.13357	0.008723415
827	56.3	116.186	115.96996	0.008606889
828	56.35	112.189	115.81402	0.00891353
829	56.4	113.624	115.67905	0.008800958
830	56.45	112.785	115.56876	0.008866427
831	56.5	114.092	115.47151	0.008764856
832	56.55	115.177	115.38665	0.008682289
833	56.6	117.238	115.31361	0.008529658
834	56.65	114.7	115.25191	0.008718396
835	56.7	118.265	115.20117	0.008455587
836	56.75	111.645	115.16107	0.008956962
837	56.8	113.873	115.13138	0.008781713
838	56.85	114.756	115.11192	0.008714141
839	56.9	117.937	115.1026	0.008479103
840	56.95	118.976	115.1034	0.008405056
841	57	116.674	115.11435	0.00857089
842	57.05	113.831	115.13557	0.008784953
843	57.1	114.292	115.16724	0.008749519
844	57.15	113.098	115.20963	0.008841889
845	57.2	113.56	115.26308	0.008805918
846	57.25	120.761	115.32803	0.008280819
847	57.3	120.945	115.40501	0.008268221
848	57.35	115.141	115.49467	0.008685004
849	57.4	112.541	115.59778	0.008885651
850	57.45	120.82	115.71523	0.008276775
851	57.5	115.308	115.8481	0.008672425
852	57.55	112.165	115.99763	0.008915437
853	57.6	113.667	116.16529	0.008797628
854	57.65	121.431	116.35279	0.008235129
855	57.7	123.57	116.56216	0.008092579
856	57.75	117.795	116.79576	0.008489325
857	57.8	120.438	117.0564	0.008303027
858	57.85	122.489	117.34739	0.008163998
859	57.9	118.316	117.67269	0.008451942
860	57.95	115.195	118.03706	0.008680932
861	58	115.993	118.44622	0.00862121
862	58.05	117.416	118.90713	0.008516727
863	58.1	118.61	119.42831	0.008430992
864	58.15	122.953	120.02033	0.008133189
865	58.2	122.174	120.69636	0.008185048
866	58.25	122.165	121.47304	0.008185651
867	58.3	121.991	122.37166	0.008197326
868	58.35	118.502	123.41996	0.008438676
869	58.4	123.85	124.65502	0.008074283
870	58.45	121.824	126.12895	0.008208563
871	58.5	121.691	127.92203	0.008217535
872	58.55	127.207	130.17505	0.007861203
873	58.6	129.136	133.16941	0.007743774
874	58.65	135.707	137.48858	0.007368817
875	58.7	143.259	144.24509	0.006980364
876	58.75	153.429	155.56814	0.006517673
877	58.8	172.577	174.79964	0.005794515
878	58.85	201.686	206.25297	0.004958202
879	58.9	255.606	253.85274	0.003912271
880	58.95	314.599	318.43203	0.00317865
881	59	401.859	394.34952	0.002488435
882	59.05	466.144	467.26861	0.00214526
883	59.1	531.849	515.51832	0.001880233
884	59.15	528.242	518.64115	0.001893072
885	59.2	475.011	474.22869	0.002105214
886	59.25	396.334	402.79273	0.002523124
887	59.3	321.245	329.3531	0.003112889
888	59.35	255.483	269.51361	0.003914155
889	59.4	227.276	229.12198	0.004399937
890	59.45	209.908	207.98537	0.004763992
891	59.5	204.884	203.97588	0.004880811
892	59.55	225.3	216.48739	0.004438526
893	59.6	255.058	248.26641	0.003920677
894	59.65	299.263	304.98098	0.003341542
895	59.7	397.023	392.47751	0.002518746
896	59.75	525.94	511.90423	0.001901358
897	59.8	675.948	654.59461	0.001479404
898	59.85	840.665	799.44108	0.001189534
899	59.9	967.149	916.794	0.001033967
900	59.95	1036.827	983.64372	0.000964481
901	60	1056.818	1006.57374	0.000946237
902	60.05	1058.866	1014.34517	0.000944407
903	60.1	1054.868	1020.07567	0.000947986
904	60.15	1045.596	1005.81566	0.000956392
905	60.2	989.267	939.61347	0.001010849
906	60.25	861.507	812.04646	0.001160757
907	60.3	670.48	652.04659	0.001491469
908	60.35	503.033	497.78208	0.001987941
909	60.4	364.935	372.3401	0.002740214
910	60.45	280.389	282.59958	0.003566474
911	60.5	218.995	224.74533	0.004566314
912	60.55	187.251	190.14122	0.005340425
913	60.6	167.905	170.05558	0.005955749
914	60.65	153.569	158.04542	0.006511731
915	60.7	141.298	150.2569	0.007077241
916	60.75	131.239	144.70445	0.007619686
917	60.8	124.926	140.44816	0.008004739
918	60.85	127.526	137.04095	0.007841538
919	60.9	126.366	134.25072	0.007913521
920	60.95	123.898	131.96821	0.008071155
921	61	120.643	130.01511	0.008288919
922	61.05	126.311	128.35449	0.007916967
923	61.1	123.295	126.93394	0.008110629
924	61.15	121.744	125.71053	0.008213957
925	61.2	123.159	124.65067	0.008119585
926	61.25	123.317	123.72776	0.008109182
927	61.3	122.306	122.92052	0.008176214
928	61.35	128.406	122.21179	0.007787798
929	61.4	121.915	121.5876	0.008202436
930	61.45	120.608	121.0365	0.008291324
931	61.5	123.866	120.54906	0.00807324
932	61.55	117.094	120.11744	0.008540147
933	61.6	119.46	119.73513	0.008371003
934	61.65	118.803	119.39668	0.008417296
935	61.7	123.997	119.09751	0.008064711
936	61.75	122.25	118.8338	0.008179959
937	61.8	116.661	118.60234	0.008571845
938	61.85	114.057	118.40045	0.008767546
939	61.9	124.379	118.22592	0.008039942
940	61.95	123.535	118.07692	0.008094872
941	62	122.98	117.95201	0.008131403
942	62.05	119.512	117.85004	0.008367361
943	62.1	124.42	117.7702	0.008037293
944	62.15	120.715	117.71193	0.008283975
945	62.2	124.25	117.675	0.00804829
946	62.25	119.565	117.65941	0.008363652
947	62.3	119.834	117.6655	0.008344877
948	62.35	119.34	117.6939	0.00837942
949	62.4	119.694	117.74559	0.008354638
950	62.45	120.46	117.82194	0.008301511
951	62.5	125.109	117.92476	0.00799303
952	62.55	122.264	118.05604	0.008179022
953	62.6	118.645	118.21625	0.008428505
954	62.65	128.574	118.40768	0.007777622
955	62.7	129.915	118.63303	0.007697341
956	62.75	122.587	118.89386	0.008157472
957	62.8	130.647	119.183	0.007654213
958	62.85	127.683	119.4777	0.007831896
959	62.9	125.39	119.95377	0.007975118
960	62.95	128.96	120.51871	0.007754342
961	63	129.311	121.19163	0.007733294
962	63.05	127.914	121.99748	0.007817753
963	63.1	130.213	122.9693	0.007679725
964	63.15	128.059	124.15197	0.007808901
965	63.2	129.346	125.60959	0.007731202
966	63.25	132.553	127.44253	0.007544152
967	63.3	128	129.83062	0.0078125
968	63.35	131.313	133.13819	0.007615392
969	63.4	141.366	138.13956	0.007073837
970	63.45	157.191	146.41631	0.006361687
971	63.5	176.557	160.86944	0.005663893
972	63.55	200.6	186.02169	0.004985045
973	63.6	235.91	227.45614	0.004238905
974	63.65	288.572	289.69631	0.00346534
975	63.7	371.011	372.43052	0.002695338
976	63.75	444.968	466.09706	0.002247353
977	63.8	515.841	549.20273	0.001938582
978	63.85	557.049	591.86118	0.001795174
979	63.9	541.003	572.47367	0.001848419
980	63.95	492.433	499.5606	0.002030733
981	64	397.036	404.53125	0.002518663
982	64.05	314.498	314.93683	0.00317967
983	64.1	241.162	244.62299	0.00414659
984	64.15	202.895	196.41241	0.004928658
985	64.2	174.266	166.69781	0.005738354
986	64.25	155.148	149.65492	0.006445459
987	64.3	154.152	140.07768	0.006487104
988	64.35	135.495	134.45531	0.007380346
989	64.4	135.169	130.83494	0.007398146
990	64.45	133.534	128.26539	0.007488729
991	64.5	132.478	126.31088	0.007548423
992	64.55	123.044	124.76423	0.008127174
993	64.6	125.288	123.51328	0.00798161
994	64.65	125.485	122.48748	0.00796908
995	64.7	129.013	121.63765	0.007751157
996	64.75	117.686	120.92765	0.008497187
997	64.8	117.782	120.33041	0.008490262
998	64.85	124.721	119.84071	0.008017896
999	64.9	122.837	119.42148	0.00814087
1000	64.95	126.324	119.05402	0.007916152
1001	65	122.917	118.73911	0.008135571
1002	65.05	122.683	118.4686	0.008151089
1003	65.1	124.415	118.23593	0.008037616
1004	65.15	128.235	118.03576	0.007798183
1005	65.2	123.175	117.86367	0.008118531
1006	65.25	125.474	117.71604	0.007969779
1007	65.3	114.452	117.58984	0.008737287
1008	65.35	119.309	117.48255	0.008381597
1009	65.4	126.083	117.39204	0.007931283
1010	65.45	124.001	117.31653	0.008064451
1011	65.5	117.43	117.25777	0.008515711
1012	65.55	123.841	117.21358	0.00807487
1013	65.6	124.073	117.17485	0.008059771
1014	65.65	124.344	117.14626	0.008042205
1015	65.7	122.927	117.12701	0.008134909
1016	65.75	117.275	117.1164	0.008526967
1017	65.8	118.203	117.11385	0.008460022
1018	65.85	121.916	117.11886	0.008202369
1019	65.9	119.519	117.131	0.008366871
1020	65.95	118.978	117.1499	0.008404915
1021	66	124.52	117.17527	0.008030838
1022	66.05	116.579	117.20685	0.008577874
1023	66.1	124.254	117.24444	0.008048031
1024	66.15	127.263	117.28787	0.007857743
1025	66.2	121.648	117.33701	0.008220439
1026	66.25	127.268	117.39177	0.007857435
1027	66.3	125.626	117.4521	0.007960136
1028	66.35	125.428	117.51797	0.007972701
1029	66.4	126.975	117.58937	0.007875566
1030	66.45	118.961	117.66633	0.008406116
1031	66.5	122.352	117.74892	0.00817314
1032	66.55	128.203	117.83722	0.007800129
1033	66.6	128.695	117.93134	0.00777031
1034	66.65	129.859	118.03142	0.00770066
1035	66.7	124.84	118.13762	0.008010253
1036	66.75	128.913	118.25014	0.00775717
1037	66.8	126.676	118.36921	0.007894155
1038	66.85	122.959	118.49509	0.008132792
1039	66.9	128.369	118.62806	0.007790043
1040	66.95	121.672	118.76845	0.008218818
1041	67	119.437	118.91664	0.008372615
1042	67.05	121.663	119.07302	0.008219426
1043	67.1	125.132	119.23806	0.007991561
1044	67.15	124.381	119.41224	0.008039813
1045	67.2	125.883	119.59613	0.007943884
1046	67.25	131.959	119.79034	0.007578111
1047	67.3	129.253	119.99556	0.007736764
1048	67.35	128.498	120.21253	0.007782222
1049	67.4	132.526	120.4421	0.007545689
1050	67.45	122.341	120.68514	0.008173875
1051	67.5	119.445	120.94219	0.008372054
1052	67.55	124.105	121.21398	0.008057693
1053	67.6	127.601	121.50118	0.007836929
1054	67.65	130.16	121.80339	0.007682852
1055	67.7	120.366	122.11335	0.008307994
1056	67.75	125.757	122.46398	0.007951844
1057	67.8	124.972	122.83838	0.008001792
1058	67.85	131.088	123.23877	0.007628463
1059	67.9	123.356	123.66772	0.008106618
1060	67.95	128.138	124.12808	0.007804086
1061	68	125.61	124.62313	0.00796115
1062	68.05	120.07	125.15659	0.008328475
1063	68.1	125.25	125.7327	0.007984032
1064	68.15	122.909	126.35635	0.008136101
1065	68.2	125.969	127.03315	0.007938461
1066	68.25	126.018	127.76961	0.007935374
1067	68.3	130.452	128.57328	0.007665655
1068	68.35	130.76	129.45296	0.007647599
1069	68.4	139.4	130.41804	0.007173601
1070	68.45	138.605	131.47971	0.007214747
1071	68.5	133.6	132.65117	0.00748503
1072	68.55	133.896	133.94558	0.007468483
1073	68.6	133.689	135.36856	0.007480047
1074	68.65	142.418	137.00476	0.007021584
1075	68.7	135.719	138.8481	0.007368165
1076	68.75	138.38	140.93637	0.007226478
1077	68.8	144.129	143.31651	0.006938229
1078	68.85	147.723	146.08257	0.006769427
1079	68.9	148.644	149.26452	0.006727483
1080	68.95	149.181	152.94077	0.006703267
1081	69	153.042	157.28217	0.006534154
1082	69.05	148.472	162.40758	0.006735277
1083	69.1	154.558	168.55466	0.006470063
1084	69.15	154.126	176.04651	0.006488198
1085	69.2	161.644	185.38267	0.006186434
1086	69.25	174.448	197.42776	0.005732367
1087	69.3	185.239	213.96516	0.005398431
1088	69.35	205.64	238.81297	0.004862867
1089	69.4	259.152	279.79121	0.003858739
1090	69.45	336.192	351.14746	0.002974491
1091	69.5	469.414	474.64867	0.002130316
1092	69.55	658.568	676.04378	0.001518446
1093	69.6	934.742	973.97325	0.001069814
1094	69.65	1343	1361.84489	0.000744602
1095	69.7	1756.935	1787.25495	0.000569173
1096	69.75	2129.21	2138.75635	0.000469658
1097	69.8	2324.795	2271.66282	0.000430145
1098	69.85	2190.701	2112.99863	0.000456475
1099	69.9	1809.75	1745.44028	0.000552563
1100	69.95	1385.483	1320.06689	0.00072177
1101	70	991.997	944.20936	0.001008068
1102	70.05	713.316	663.32944	0.001401903
1103	70.1	539.654	479.41	0.001853039
1104	70.15	431.475	371.8269	0.002317631
1105	70.2	364.949	314.94581	0.002740109
1106	70.25	334.741	288.68227	0.002987384
1107	70.3	323.351	281.9473	0.003092615
1108	70.35	334.989	292.3718	0.002985173
1109	70.4	367.473	325.52626	0.002721288
1110	70.45	447.61	394.27738	0.002234088
1111	70.5	550.86	516.36558	0.001815343
1112	70.55	730.568	707.47492	0.001368798
1113	70.6	983.533	969.02019	0.001016743
1114	70.65	1325.526	1273.11149	0.000754417
1115	70.7	1602.34	1550.1445	0.000624087
1116	70.75	1770.329	1696.07614	0.000564867
1117	70.8	1754.586	1633.59573	0.000569935
1118	70.85	1525.711	1392.87721	0.000655432
1119	70.9	1164.91	1080.87871	0.000858435
1120	70.95	828.488	788.21941	0.001207018
1121	71	574.5	559.24504	0.001740644
1122	71.05	416.265	402.37967	0.002402316
1123	71.1	323.702	305.4517	0.003089261
1124	71.15	256.247	249.41592	0.003902485
1125	71.2	219.006	217.44189	0.004566085
1126	71.25	187.863	198.26066	0.005323028
1127	71.3	172.65	185.62885	0.005792065
1128	71.35	161.955	176.50356	0.006174555
1129	71.4	159.108	169.47929	0.006285039
1130	71.45	142.258	163.87652	0.007029482
1131	71.5	137.936	159.32003	0.007249739
1132	71.55	134.946	155.57039	0.007410372
1133	71.6	134.464	152.45955	0.007436935
1134	71.65	133.021	149.86376	0.00751761
1135	71.7	129.125	147.68975	0.007744434
1136	71.75	136.382	145.86626	0.007332346
1137	71.8	132.723	144.33835	0.007534489
1138	71.85	133.597	143.06339	0.007485198
1139	71.9	131.531	142.00825	0.00760277
1140	71.95	137.388	141.14727	0.007278656
1141	72	134.04	140.46076	0.00746046
1142	72.05	133.492	139.93402	0.007491086
1143	72.1	136.358	139.55651	0.007333636
1144	72.15	137.049	139.32149	0.00729666
1145	72.2	141.234	139.22563	0.007080448
1146	72.25	137.021	139.26904	0.007298151
1147	72.3	133.814	139.4553	0.00747306
1148	72.35	132.976	139.79182	0.007520154
1149	72.4	134.439	140.29041	0.007438318
1150	72.45	136.079	140.96813	0.007348672
1151	72.5	140.28	141.84865	0.0071286
1152	72.55	141.82	142.96415	0.007051192
1153	72.6	140.151	144.35823	0.007135161
1154	72.65	142.151	146.09068	0.007034773
1155	72.7	141.44	148.2465	0.007070136
1156	72.75	145.535	150.95686	0.006871199
1157	72.8	139.385	154.45266	0.007174373
1158	72.85	153.108	159.19717	0.006531337
1159	72.9	160.303	166.17947	0.006238186
1160	72.95	164.278	177.41824	0.006087242
1161	73	187.092	196.51858	0.005344964
1162	73.05	221.64	229.05199	0.004511821
1163	73.1	282.226	281.53782	0.00354326
1164	73.15	355.765	358.63035	0.002810844
1165	73.2	458.011	458.57776	0.002183354
1166	73.25	559.591	568.03518	0.001787019
1167	73.3	654.946	658.33866	0.001526843
1168	73.35	715.859	692.50633	0.001396923
1169	73.4	676.956	654.85229	0.001477201
1170	73.45	574.013	571.38978	0.001742121
1171	73.5	497.878	483.90509	0.002008524
1172	73.55	427.461	422.65133	0.002339395
1173	73.6	406.891	402.25804	0.002457661
1174	73.65	426.992	423.87292	0.002341964
1175	73.7	490.391	476.65964	0.002039189
1176	73.75	553.289	538.48327	0.001807374
1177	73.8	588.036	578.44474	0.001700576
1178	73.85	603.004	571.57473	0.001658364
1179	73.9	554.408	521.59565	0.001803726
1180	73.95	493.873	456.2569	0.002024812
1181	74	432.349	402.59313	0.002312946
1182	74.05	390.225	377.79968	0.002562624
1183	74.1	401.894	391.33208	0.002488218
1184	74.15	453.276	447.9715	0.002206161
1185	74.2	584.278	549.76862	0.001711514
1186	74.25	740.86	695.30116	0.001349783
1187	74.3	923.719	876.65393	0.00108258
1188	74.35	1101.475	1081.20008	0.000907874
1189	74.4	1311.927	1295.5606	0.000762238
1190	74.45	1502.266	1489.4323	0.000665661
1191	74.5	1634.801	1596.08483	0.000611695
1192	74.55	1611.573	1543.82386	0.000620512
1193	74.6	1440.059	1335.90519	0.000694416
1194	74.65	1125.666	1055.5181	0.000888363
1195	74.7	838.636	785.37583	0.001192412
1196	74.75	617.887	569.20813	0.001618419
1197	74.8	451.685	418.11434	0.002213932
1198	74.85	346.719	323.76795	0.00288418
1199	74.9	292.852	270.31869	0.003414694
1200	74.95	255.03	242.9692	0.003921107
1201	75	240.78	231.70117	0.004153169
1202	75.05	231.221	231.0196	0.004324867
1203	75.1	239.633	237.93405	0.004173048
1204	75.15	241.342	249.85555	0.004143498
1205	75.2	263.48	263.16036	0.003795354
1206	75.25	272.561	273.36488	0.003668903
1207	75.3	280.866	278.98682	0.003560417
1208	75.35	289.157	286.40879	0.003458329
1209	75.4	311.884	308.43951	0.00320632
1210	75.45	354.612	359.74088	0.002819984
1211	75.5	441.859	453.03458	0.002263165
1212	75.55	582.708	593.45265	0.001716125
1213	75.6	781.163	770.61409	0.001280143
1214	75.65	1000.667	950.08979	0.000999333
1215	75.7	1168.826	1070.23073	0.000855559
1216	75.75	1197.057	1069.35083	0.000835382
1217	75.8	1086.943	945.88642	0.000920011
1218	75.85	871.76	760.86525	0.001147105
1219	75.9	628.425	576.21281	0.00159128
1220	75.95	462.093	425.66035	0.002164067
1221	76	326.431	318.92656	0.003063435
1222	76.05	265.205	251.04807	0.003770668
1223	76.1	216.258	210.99482	0.004624106
1224	76.15	186.791	187.96262	0.005353577
1225	76.2	179.524	174.23289	0.005570286
1226	76.25	168.37	165.31659	0.0059393
1227	76.3	154.238	158.94944	0.006483487
1228	76.35	146.238	154.07002	0.006838168
1229	76.4	143.518	150.17072	0.006967767
1230	76.45	146.957	146.97938	0.006804712
1231	76.5	138.719	144.32704	0.007208818
1232	76.55	131.032	142.09684	0.007631724
1233	76.6	127.853	140.2032	0.007821482
1234	76.65	129.652	138.58154	0.007712955
1235	76.7	129.47	137.18232	0.007723797
1236	76.75	129.781	135.96694	0.007705288
1237	76.8	131.589	134.90503	0.007599419
1238	76.85	130.28	133.9724	0.007675775
1239	76.9	130.297	133.14959	0.007674774
1240	76.95	126.149	132.42082	0.007927134
1241	77	128.896	131.77319	0.007758193
1242	77.05	136.784	131.19608	0.007310797
1243	77.1	132.772	130.68064	0.007531708
1244	77.15	133.223	130.21953	0.007506211
1245	77.2	131.968	129.80657	0.007577595
1246	77.25	130.654	129.43655	0.007653803
1247	77.3	137.296	129.10507	0.007283533
1248	77.35	133.248	128.80841	0.007504803
1249	77.4	129.437	128.54339	0.007725766
1250	77.45	134.508	128.34889	0.007434502
1251	77.5	127.794	128.15269	0.007825094
1252	77.55	125.381	127.96836	0.00797569
1253	77.6	135.146	127.80713	0.007399405
1254	77.65	131.101	127.66766	0.007627707
1255	77.7	128.297	127.54884	0.007794415
1256	77.75	131.676	127.44978	0.007594398
1257	77.8	129.97	127.36981	0.007694083
1258	77.85	133.948	127.30844	0.007465584
1259	77.9	132.838	127.28202	0.007527966
1260	77.95	139.56	127.25728	0.007165377
1261	78	125.888	127.25086	0.007943569
1262	78.05	134.255	127.26748	0.007448512
1263	78.1	137.105	127.29992	0.00729368
1264	78.15	127.899	127.35104	0.007818669
1265	78.2	135.622	127.42298	0.007373435
1266	78.25	135.475	127.517	0.007381436
1267	78.3	126.911	127.6347	0.007879538
1268	78.35	133.635	127.77806	0.00748307
1269	78.4	126.172	127.94892	0.007925689
1270	78.45	128.182	128.14891	0.007801407
1271	78.5	130.656	128.37787	0.007653686
1272	78.55	131.066	128.64205	0.007629744
1273	78.6	134.468	128.96335	0.007436714
1274	78.65	136.308	129.33597	0.007336327
1275	78.7	132.118	129.76819	0.007568991
1276	78.75	133.738	130.27026	0.007477306
1277	78.8	132.44	130.85506	0.007550589
1278	78.85	130.427	131.53886	0.007667124
1279	78.9	126.95	132.34237	0.007877117
1280	78.95	132.889	133.29236	0.007525077
1281	79	131.197	134.42378	0.007622126
1282	79.05	133.313	135.78313	0.007501144
1283	79.1	137.79	137.43413	0.007257421
1284	79.15	139.376	139.46921	0.007174836
1285	79.2	144.193	142.0379	0.006935149
1286	79.25	148.93	145.41882	0.006714564
1287	79.3	148.665	150.19037	0.006726533
1288	79.35	160.551	157.57296	0.00622855
1289	79.4	178.83	169.95875	0.005591903
1290	79.45	197.375	191.41994	0.005066498
1291	79.5	237.508	227.61145	0.004210384
1292	79.55	285.35	284.27367	0.003504468
1293	79.6	356.249	363.97925	0.002807025
1294	79.65	451.742	461.675	0.002213653
1295	79.7	528.41	559.79113	0.00189247
1296	79.75	594.481	625.76902	0.00168214
1297	79.8	597.765	626.46464	0.001672898
1298	79.85	548.734	561.68014	0.001822377
1299	79.9	465.45	464.69807	0.002148458
1300	79.95	391.661	368.41698	0.002553228
1301	80	310.136	290.64981	0.003224392
1302	80.05	263.937	236.8987	0.003788783
1303	80.1	229.18	205.46819	0.004363382
1304	80.15	218.765	192.05978	0.004571115
1305	80.2	216.941	192.92788	0.004609548
1306	80.25	222.088	205.77637	0.00450272
1307	80.3	238.768	228.69121	0.004188166
1308	80.35	264.305	258.12917	0.003783508
1309	80.4	289.247	286.79974	0.003457253
1310	80.45	305.632	303.04833	0.003271909
1311	80.5	294.542	297.06191	0.003395102
1312	80.55	273.158	271.31618	0.003660885
1313	80.6	249.973	237.44486	0.004000432
1314	80.65	209.928	205.32147	0.004763538
1315	80.7	185.321	179.80481	0.005396043
1316	80.75	163.72	161.9536	0.006107989
1317	80.8	156.954	150.61806	0.006371294
1318	80.85	145.051	143.84202	0.006894127
1319	80.9	136.096	139.82928	0.007347755
1320	80.95	140.138	137.33693	0.007135823
1321	81	141.777	135.65335	0.00705333
1322	81.05	137.964	134.4198	0.007248268
1323	81.1	129.981	133.46497	0.007693432
1324	81.15	139.981	132.70373	0.007143827
1325	81.2	131.735	132.08822	0.007590997
1326	81.25	131.251	131.58757	0.00761899
1327	81.3	122.278	131.17992	0.008178086
1328	81.35	132.709	130.84907	0.007535284
1329	81.4	128.224	130.58267	0.007798852
1330	81.45	132.55	130.37125	0.007544323
1331	81.5	131.617	130.20742	0.007597803
1332	81.55	134.706	130.08545	0.007423574
1333	81.6	123.656	130.00085	0.008086951
1334	81.65	126.076	129.98564	0.007931724
1335	81.7	131.035	129.96711	0.007631549
1336	81.75	124.362	129.97699	0.008041041
1337	81.8	130.092	130.01459	0.007686868
1338	81.85	131.908	130.07891	0.007581041
1339	81.9	129.287	130.1694	0.00773473
1340	81.95	126.285	130.28586	0.007918597
1341	82	129.349	130.4285	0.007731022
1342	82.05	132.118	130.59785	0.007568991
1343	82.1	126.918	130.7948	0.007879103
1344	82.15	131.234	131.02061	0.007619977
1345	82.2	137.844	131.27692	0.007254578
1346	82.25	134.14	131.5658	0.007454898
1347	82.3	136.588	131.88975	0.007321287
1348	82.35	128.265	132.25185	0.007796359
1349	82.4	128.312	132.65572	0.007793503
1350	82.45	124.892	133.10571	0.008006918
1351	82.5	131.052	133.60698	0.007630559
1352	82.55	132.042	134.16567	0.007573348
1353	82.6	133.093	134.80359	0.007513543
1354	82.65	135.639	135.50755	0.007372511
1355	82.7	137.545	136.28831	0.007270348
1356	82.75	134.369	137.16543	0.007442193
1357	82.8	136.717	138.15404	0.007314379
1358	82.85	140.291	139.27256	0.007128041
1359	82.9	136.699	140.54355	0.007315342
1360	82.95	140.091	141.99485	0.007138217
1361	83	139.485	143.6611	0.00716923
1362	83.05	147.757	145.58579	0.006767869
1363	83.1	147.988	147.82411	0.006757305
1364	83.15	149.813	150.44685	0.006674988
1365	83.2	152.363	153.59903	0.006563273
1366	83.25	150.075	157.30211	0.006663335
1367	83.3	159.82	161.76292	0.006257039
1368	83.35	163.839	167.22396	0.006103553
1369	83.4	169.178	174.05993	0.005910934
1370	83.45	175.094	182.96158	0.005711218
1371	83.5	187.566	195.26609	0.005331457
1372	83.55	205.887	213.78606	0.004857033
1373	83.6	234.06	243.9662	0.004272409
1374	83.65	294.994	295.09749	0.003389899
1375	83.7	378.31	380.39921	0.002643335
1376	83.75	525.75	514.3135	0.001902045
1377	83.8	732.651	706.07649	0.001364906
1378	83.85	986.961	950.16652	0.001013211
1379	83.9	1286.084	1214.35673	0.000777554
1380	83.95	1511.597	1430.17916	0.000661552
1381	84	1635.003	1517.5178	0.00061162
1382	84.05	1577.591	1455.33009	0.000633878
1383	84.1	1374.401	1287.27891	0.00072759
1384	84.15	1119.376	1062.45248	0.000893355
1385	84.2	853.462	826.65751	0.001171698
1386	84.25	640.099	620.34778	0.001562258
1387	84.3	490.314	462.75435	0.002039509
1388	84.35	371.892	353.64655	0.002688953
1389	84.4	294.64	283.44971	0.003393972
1390	84.45	251.982	240.51484	0.003968537
1391	84.5	222.916	214.83997	0.004485995
1392	84.55	207.124	199.65165	0.004828026
1393	84.6	201.201	190.91019	0.004970154
1394	84.65	191.443	187.01655	0.005223487
1395	84.7	190.3	188.07636	0.005254861
1396	84.75	202.135	195.28909	0.004947189
1397	84.8	209.565	210.14654	0.004771789
1398	84.85	236.355	233.25831	0.004230924
1399	84.9	265.268	262.89381	0.003769772
1400	84.95	290.524	293.38144	0.003442056
1401	85	317.337	314.10749	0.003151224
1402	85.05	310.635	313.82432	0.003219212
1403	85.1	291.016	291.86334	0.003436237
1404	85.15	263.318	259.01726	0.003797689
1405	85.2	228.541	226.4411	0.004375582
1406	85.25	199.562	200.35933	0.005010974
1407	85.3	183.748	182.75654	0.005442236
1408	85.35	179.236	172.8142	0.005579236
1409	85.4	167.303	168.14622	0.005977179
1410	85.45	163.208	165.73832	0.006127151
1411	85.5	167.074	162.93774	0.005985372
1412	85.55	157.123	158.67214	0.006364441
1413	85.6	148.741	153.56703	0.006723096
1414	85.65	144.145	148.65345	0.006937459
1415	85.7	142.81	144.54505	0.007002311
1416	85.75	139.418	141.43152	0.007172675
1417	85.8	138.51	139.22598	0.007219695
1418	85.85	133.618	137.71192	0.007484022
1419	85.9	133.431	136.66165	0.00749451
1420	85.95	131.661	135.89991	0.007595264
1421	86	131.509	135.31567	0.007604042
1422	86.05	131.497	134.84688	0.007604736
1423	86.1	133.244	134.46056	0.007505028
1424	86.15	132.829	134.1386	0.007528476
1425	86.2	122.571	133.87379	0.008158537
1426	86.25	127.277	133.65216	0.007856879
1427	86.3	128.97	133.46964	0.007753741
1428	86.35	134.364	133.3232	0.00744247
1429	86.4	131.268	133.2508	0.007618003
1430	86.45	129.245	133.17283	0.007737243
1431	86.5	129.453	133.11869	0.007724811
1432	86.55	134.306	133.09199	0.007445684
1433	86.6	130.384	133.09197	0.007669653
1434	86.65	130.789	133.11832	0.007645903
1435	86.7	136.676	133.17114	0.007316574
1436	86.75	132.971	133.25095	0.007520437
1437	86.8	132.652	133.35871	0.007538522
1438	86.85	135.335	133.49584	0.007389072
1439	86.9	136.276	133.66426	0.007338049
1440	86.95	131.208	133.86649	0.007621486
1441	87	132.509	134.10571	0.007546657
1442	87.05	131.492	134.3859	0.007605025
1443	87.1	133.179	134.71204	0.007508691
1444	87.15	125.81	135.09027	0.007948494
1445	87.2	131.631	135.52822	0.007596995
1446	87.25	131.109	136.0354	0.007627241
1447	87.3	129.574	136.62369	0.007717598
1448	87.35	130.893	137.30806	0.007639828
1449	87.4	131.68	138.10749	0.007594168
1450	87.45	135.552	139.04634	0.007377243
1451	87.5	133.456	140.15614	0.007493106
1452	87.55	136.849	141.47837	0.007307324
1453	87.6	138.172	143.06874	0.007237356
1454	87.65	145.474	145.00528	0.006874081
1455	87.7	142.474	147.40613	0.007018824
1456	87.75	139.492	150.4737	0.00716887
1457	87.8	146.118	154.6012	0.006843784
1458	87.85	153.526	160.6007	0.006513555
1459	87.9	163.712	170.10234	0.006108288
1460	87.95	179.161	186.06127	0.005581572
1461	88	196.655	213.04273	0.005085047
1462	88.05	244.529	256.65632	0.004089494
1463	88.1	313.979	321.54844	0.003184926
1464	88.15	425.505	408.0812	0.002350149
1465	88.2	547.003	507.98437	0.001828144
1466	88.25	680.657	599.75375	0.001469169
1467	88.3	729.206	648.4236	0.001371355
1468	88.35	687.919	627.51435	0.00145366
1469	88.4	568.449	549.31596	0.001759173
1470	88.45	425.115	449.64978	0.002352305
1471	88.5	331.976	356.35796	0.003012266
1472	88.55	263.144	282.59149	0.003800201
1473	88.6	210.379	231.02041	0.004753326
1474	88.65	186.918	198.32738	0.00534994
1475	88.7	172.551	178.94857	0.005795388
1476	88.75	161.727	167.75019	0.006183259
1477	88.8	157.784	161.12145	0.006337778
1478	88.85	162.561	156.95308	0.006151537
1479	88.9	145.868	154.16241	0.006855513
1480	88.95	149.587	152.2307	0.006685073
1481	89	139.996	150.90717	0.007143061
1482	89.05	146.904	150.05853	0.006807167
1483	89.1	150.052	149.60892	0.006664356
1484	89.15	149.015	149.53425	0.006710734
1485	89.2	156.464	149.80567	0.006391247
1486	89.25	155.59	150.41582	0.006427148
1487	89.3	157.063	151.3499	0.006366872
1488	89.35	154.333	152.75046	0.006479496
1489	89.4	158.798	154.62638	0.006297309
1490	89.45	160.38	157.07865	0.006235191
1491	89.5	167.345	160.2666	0.005975679
1492	89.55	166.524	164.46548	0.00600514
1493	89.6	170.81	170.20661	0.005854458
1494	89.65	181.332	178.58269	0.005514746
1495	89.7	191.555	191.80106	0.005220433
1496	89.75	228.174	213.93813	0.00438262
1497	89.8	260.968	251.49968	0.003831887
1498	89.85	326.673	312.93576	0.003061165
1499	89.9	416.375	406.1602	0.002401681
1500	89.95	569.694	533.86296	0.001755328
1501	90	771.859	687.40692	0.001295573
1502	90.05	961.922	839.5892	0.001039585
1503	90.1	1087.266	940.73965	0.000919738
1504	90.15	1077.622	940.56875	0.000927969
1505	90.2	912.004	839.26369	0.001096486
1506	90.25	707.069	687.15631	0.001414289
1507	90.3	517.625	533.70814	0.001931901
1508	90.35	366.465	405.96702	0.002728774
1509	90.4	278.323	312.63438	0.003592948
1510	90.45	230.158	251.06282	0.004344841
1511	90.5	195.317	213.35343	0.005119882
1512	90.55	184.051	191.03168	0.005433277
1513	90.6	170.901	177.66253	0.005851341
1514	90.65	154.166	169.11776	0.006486515
1515	90.7	148.413	163.18198	0.006737954
1516	90.75	153.046	158.75546	0.006533983
1517	90.8	141.841	155.29972	0.007050148
1518	90.85	138.874	152.53112	0.007200772
1519	90.9	145.779	150.30718	0.006859699
1520	90.95	147.256	148.46604	0.006790895
1521	91	137.251	146.94163	0.007285921
1522	91.05	139.662	145.67732	0.007160144
1523	91.1	130.109	144.62718	0.007685863
1524	91.15	134.592	143.75536	0.007429862
1525	91.2	137.051	143.03417	0.007296554
1526	91.25	133.392	142.44144	0.007496701
1527	91.3	139.426	141.96006	0.007172263
1528	91.35	137.732	141.57659	0.007260477
1529	91.4	136.112	141.28052	0.007346891
1530	91.45	137.063	141.0637	0.007295915
1531	91.5	135.268	140.91993	0.007392731
1532	91.55	138.161	140.84472	0.007237933
1533	91.6	135.399	140.835	0.007385579
1534	91.65	143.154	140.889	0.006985484
1535	91.7	137.059	141.00621	0.007296128
1536	91.75	143.777	141.18726	0.006955215
1537	91.8	144.16	141.434	0.006936737
1538	91.85	142.045	141.74952	0.007040023
1539	91.9	135.451	142.13827	0.007382744
1540	91.95	145.048	142.60622	0.006894269
1541	92	138.295	143.1611	0.007230919
1542	92.05	140.978	143.8127	0.007093305
1543	92.1	139.673	144.57332	0.00715958
1544	92.15	137.787	145.45835	0.007257579
1545	92.2	140.707	146.48696	0.007106967
1546	92.25	143.114	147.68321	0.006987437
1547	92.3	145.024	149.07733	0.00689541
1548	92.35	149.729	150.70765	0.006678733
1549	92.4	155.806	152.6231	0.006418238
1550	92.45	153.591	154.88689	0.006510798
1551	92.5	155.449	157.58181	0.006432978
1552	92.55	160.057	160.81888	0.006247774
1553	92.6	160.986	164.75372	0.00621172
1554	92.65	171.283	169.62299	0.005838291
1555	92.7	187.959	175.8324	0.005320309
1556	92.75	194.165	184.16061	0.005150259
1557	92.8	215.387	196.17523	0.004642806
1558	92.85	243.794	214.92594	0.004101824
1559	92.9	274.816	245.77489	0.003638798
1560	92.95	338.789	296.79507	0.00295169
1561	93	428.507	377.73375	0.002333684
1562	93.05	544.03	496.65679	0.001838134
1563	93.1	676.102	654.36209	0.001479067
1564	93.15	830.975	837.4112	0.001203406
1565	93.2	951.862	1010.09477	0.001050572
1566	93.25	1023.034	1112.56211	0.000977485
1567	93.3	991.759	1094.33425	0.001008309
1568	93.35	885.812	969.68444	0.001128908
1569	93.4	755.973	801.90214	0.001322799
1570	93.45	635.273	646.58985	0.001574126
1571	93.5	534.739	533.8644	0.001870071
1572	93.55	502.605	473.40225	0.001989634
1573	93.6	494.035	460.39813	0.002024148
1574	93.65	512.6	479.87848	0.001950839
1575	93.7	522.443	509.17776	0.001914084
1576	93.75	528.964	522.7822	0.001890488
1577	93.8	500.895	507.42053	0.001996426
1578	93.85	460.17	470.62332	0.00217311
1579	93.9	416.714	425.39765	0.002399727
1580	93.95	362.65	377.39306	0.00275748
1581	94	306.136	328.51932	0.003266522
1582	94.05	269.67	282.89819	0.003708236
1583	94.1	234.346	244.72245	0.004267195
1584	94.15	212.035	215.39843	0.004716203
1585	94.2	190.858	194.21742	0.005239497
1586	94.25	169.313	179.59829	0.005906221
1587	94.3	160.846	169.77862	0.006217127
1588	94.35	158.672	163.18649	0.006302309
1589	94.4	152.351	158.64276	0.00656379
1590	94.45	146.978	155.33211	0.006803739
1591	94.5	147.671	152.77829	0.00677181
1592	94.55	144.027	150.72316	0.006943143
1593	94.6	139.442	149.0231	0.00717144
1594	94.65	140.8	147.59357	0.007102273
1595	94.7	141.714	146.3736	0.007056466
1596	94.75	137.405	145.32082	0.007277756
1597	94.8	140.344	144.44278	0.007125349
1598	94.85	140.227	143.70122	0.007131294
1599	94.9	136.789	143.08137	0.007310529
1600	94.95	141.827	142.56768	0.007050844
1601	95	139.717	142.13933	0.007157325
1602	95.05	139.64	141.76562	0.007161272
1603	95.1	143.604	141.41493	0.006963594
1604	95.15	135.876	141.0519	0.007359651
1605	95.2	132.898	140.67077	0.007524568
1606	95.25	135.604	140.30422	0.007374414
1607	95.3	136.745	139.97647	0.007312882
1608	95.35	129.143	139.69842	0.007743354
1609	95.4	128.408	139.47037	0.007787677
1610	95.45	130.893	139.28122	0.007639828
1611	95.5	138.157	139.1401	0.007238142
1612	95.55	137.571	139.03017	0.007268974
1613	95.6	136.656	138.94728	0.007317644
1614	95.65	138.077	138.88829	0.007242336
1615	95.7	140.327	138.85114	0.007126212
1616	95.75	137.129	138.83453	0.007292404
1617	95.8	136.912	138.83766	0.007303962
1618	95.85	139.752	138.86009	0.007155533
1619	95.9	138.52	138.90159	0.007219174
1620	95.95	140.361	138.96216	0.007124486
1621	96	135.299	139.04201	0.007391038
1622	96.05	134.315	139.14153	0.007445185
1623	96.1	145.053	139.26131	0.006894032
1624	96.15	147.434	139.40218	0.006782696
1625	96.2	136.889	139.56517	0.007305189
1626	96.25	144.298	139.75159	0.006930103
1627	96.3	137.604	139.96303	0.007267231
1628	96.35	144.55	140.20142	0.006918021
1629	96.4	139.96	140.46904	0.007144899
1630	96.45	143.077	140.76865	0.006989244
1631	96.5	145.129	141.1035	0.006890422
1632	96.55	138.831	141.47746	0.007203002
1633	96.6	141.063	141.89516	0.007089031
1634	96.65	145.972	142.36212	0.006850629
1635	96.7	152.079	142.88497	0.00657553
1636	96.75	139.802	143.47171	0.007152973
1637	96.8	135.712	144.13202	0.007368545
1638	96.85	143.967	144.87772	0.006946036
1639	96.9	149.314	145.72333	0.006697296
1640	96.95	141.857	146.68684	0.007049353
1641	97	139.961	147.79072	0.007144847
1642	97.05	143.68	149.06334	0.006959911
1643	97.1	148.129	150.5409	0.006750873
1644	97.15	148.244	152.2702	0.006745636
1645	97.2	146.965	154.31309	0.006804341
1646	97.25	151.838	156.75422	0.006585967
1647	97.3	152.163	159.71755	0.0065719
1648	97.35	160.491	163.40446	0.006230879
1649	97.4	160.113	168.18171	0.006245589
1650	97.45	163.783	174.76542	0.00610564
1651	97.5	178.561	184.54797	0.005600327
1652	97.55	203.668	200.04963	0.004909951
1653	97.6	230.421	225.30136	0.004339882
1654	97.65	269.373	265.72842	0.003712325
1655	97.7	335.048	326.94712	0.002984647
1656	97.75	448.676	412.28395	0.00222878
1657	97.8	563.22	519.28392	0.001775505
1658	97.85	694.188	635.4412	0.001440532
1659	97.9	780.846	733.76637	0.001280662
1660	97.95	797.306	776.49541	0.001254224
1661	98	703.523	742.03258	0.001421418
1662	98.05	585.599	648.77878	0.001707653
1663	98.1	481.214	534.4225	0.002078078
1664	98.15	367.213	427.38121	0.002723215
1665	98.2	301.722	341.39708	0.003314309
1666	98.25	250.651	279.72631	0.003989611
1667	98.3	229.251	239.46175	0.004362031
1668	98.35	202.101	215.1244	0.004948021
1669	98.4	193.656	201.2745	0.005163796
1670	98.45	183.384	193.82319	0.005453038
1671	98.5	187.322	190.2618	0.005338401
1672	98.55	186.499	189.38954	0.005361959
1673	98.6	184.644	190.88632	0.005415827
1674	98.65	193.641	195.27988	0.005164196
1675	98.7	205.497	203.96795	0.004866251
1676	98.75	218.511	219.31657	0.004576429
1677	98.8	248.206	244.51434	0.004028911
1678	98.85	291.825	282.70797	0.003426711
1679	98.9	349.896	335.54854	0.002857992
1680	98.95	412.364	401.13364	0.002425042
1681	99	488.109	471.55575	0.002048723
1682	99.05	532.903	530.50985	0.001876514
1683	99.1	556.4	556.18727	0.001797268
1684	99.15	516.349	537.71387	0.001936675
1685	99.2	458.226	487.53641	0.002182329
1686	99.25	405.387	428.21162	0.002466779
1687	99.3	364.564	377.30861	0.002743003
1688	99.35	350.028	345.4013	0.002856914
1689	99.4	351.66	339.11844	0.002843656
1690	99.45	389.523	364.08189	0.002567242
1691	99.5	455.752	426.25482	0.002194176
1692	99.55	572.194	530.86599	0.001747659
1693	99.6	720.001	679.13355	0.001388887
1694	99.65	931.437	862.92237	0.00107361
1695	99.7	1129.895	1057.87127	0.000885038
1696	99.75	1273.945	1217.5412	0.000784963
1697	99.8	1329.72	1286.89615	0.000752038
1698	99.85	1251.159	1248.26372	0.000799259
1699	99.9	1110.621	1139.02174	0.000900397
1700	99.95	941.954	1006.44611	0.001061623
1701	100	835.911	872.19513	0.0011963
1702	100.05	709.487	738.35748	0.001409469
1703	100.1	571.083	608.65381	0.001751059
1704	100.15	455.583	493.26558	0.00219499
1705	100.2	368.347	399.46624	0.002714831
1706	100.25	306.72	328.30528	0.003260303
1707	100.3	255.299	277.139	0.003916976
1708	100.35	223.02	241.9157	0.004483903
1709	100.4	198.203	218.34899	0.005045332
1710	100.45	186.575	202.65554	0.005359775
1711	100.5	180.131	191.95515	0.005551515
1712	100.55	175.823	184.33185	0.005687538
1713	100.6	164.652	178.61182	0.006073415
1714	100.65	155.204	174.12867	0.006443133
1715	100.7	158.739	170.51564	0.006299649
1716	100.75	153.226	167.55507	0.006526308
1717	100.8	149.173	165.1168	0.006703626
1718	100.85	144.541	163.10899	0.006918452
1719	100.9	145.728	161.46587	0.006862099
1720	100.95	150.544	160.13969	0.006642576
1721	101	146.904	159.09649	0.006807167
1722	101.05	145.417	158.31307	0.006876775
1723	101.1	146.766	157.77697	0.006813567
1724	101.15	142.72	157.48572	0.007006726
1725	101.2	143.825	157.44789	0.006952894
1726	101.25	152.59	157.6864	0.006553509
1727	101.3	150.679	158.24709	0.006636625
1728	101.35	148.677	159.21911	0.00672599
1729	101.4	150.04	160.77945	0.006664889
1730	101.45	155.671	163.27716	0.006423804
1731	101.5	161.441	167.36548	0.006194213
1732	101.55	176.078	174.15372	0.005679301
1733	101.6	186.179	185.28335	0.005371175
1734	101.65	206.177	202.76824	0.004850202
1735	101.7	235.449	228.46289	0.004247204
1736	101.75	262.611	263.04157	0.003807914
1737	101.8	307.773	304.82298	0.003249148
1738	101.85	339.595	348.24446	0.002944684
1739	101.9	355.646	382.55296	0.002811785
1740	101.95	351.133	394.43928	0.002847924
1741	102	334.864	378.24851	0.002986287
1742	102.05	308.007	342.02397	0.003246679
1743	102.1	270.405	299.18	0.003698156
1744	102.15	240.783	259.61846	0.004153117
1745	102.2	213.412	228.27137	0.004685772
1746	102.25	206.96	206.49261	0.004831852
1747	102.3	184.394	193.44503	0.00542317
1748	102.35	183.572	187.20641	0.005447454
1749	102.4	181.282	185.53393	0.005516267
1750	102.45	181.935	186.19161	0.005496469
1751	102.5	183.649	187.02062	0.00544517
1752	102.55	182.894	186.37634	0.005467648
1753	102.6	183.557	183.96863	0.005447899
1754	102.65	179.742	180.74536	0.00556353
1755	102.7	170.893	177.84077	0.005851615
1756	102.75	178.187	176.01273	0.005612082
1757	102.8	171.654	175.67294	0.005825673
1758	102.85	170.608	177.06176	0.00586139
1759	102.9	177.824	180.43524	0.005623538
1760	102.95	187.529	186.25778	0.005332509
1761	103	211.504	195.39096	0.004728043
1762	103.05	229.342	209.24295	0.0043603
1763	103.1	250.877	229.90681	0.003986017
1764	103.15	282.829	260.27055	0.003535705
1765	103.2	327.77	303.92763	0.00305092
1766	103.25	390.522	364.51629	0.002560675
1767	103.3	466.146	444.28761	0.002145251
1768	103.35	556.053	542.9734	0.00179839
1769	103.4	663.206	657.98196	0.001507827
1770	103.45	785.928	781.8373	0.001272381
1771	103.5	899.537	894.55345	0.001111683
1772	103.55	978.655	960.43547	0.001021811
1773	103.6	955.785	946.33903	0.00104626
1774	103.65	829.389	853.86264	0.001205707
1775	103.7	676.062	718.75831	0.001479154
1776	103.75	543.026	578.49863	0.001841532
1777	103.8	423.844	455.828	0.002359359
1778	103.85	333.326	359.98825	0.003000066
1779	103.9	279.742	291.40562	0.003574722
1780	103.95	244.214	245.59335	0.004094769
1781	104	214.844	216.34029	0.00465454
1782	104.05	189.849	197.89731	0.005267344
1783	104.1	186.244	185.97657	0.0053693
1784	104.15	183.133	177.83132	0.005460512
1785	104.2	167.829	171.88581	0.005958446
1786	104.25	166.768	167.29431	0.005996354
1787	104.3	158.9	163.63247	0.006293266
1788	104.35	150.228	160.61452	0.006656549
1789	104.4	145.556	158.08721	0.006870208
1790	104.45	144.713	155.94958	0.006910229
1791	104.5	147.617	154.12594	0.006774288
1792	104.55	150.059	152.5584	0.006664045
1793	104.6	146.453	151.20209	0.006828129
1794	104.65	144.024	150.02175	0.006943287
1795	104.7	150.611	148.98884	0.006639621
1796	104.75	143.484	148.0804	0.006969418
1797	104.8	149.416	147.27777	0.006692724
1798	104.85	140.116	146.56567	0.007136944
1799	104.9	142.871	145.93152	0.006999321
1800	104.95	147.643	145.36494	0.006773095
1801	105	141.827	144.85732	0.007050844
1802	105.05	139.176	144.40111	0.007185147
1803	105.1	137.382	143.99012	0.007278974
1804	105.15	146.986	143.61909	0.006803369
1805	105.2	138.468	143.28356	0.007221885
1806	105.25	135.422	142.98629	0.007384325
1807	105.3	137.316	142.72097	0.007282473
1808	105.35	136.507	142.47583	0.007325632
1809	105.4	136.189	142.25146	0.007342737
1810	105.45	137.975	142.04684	0.00724769
1811	105.5	138.379	141.86049	0.00722653
1812	105.55	141.008	141.6968	0.007091796
1813	105.6	139.398	141.54643	0.007173704
1814	105.65	141.673	141.4089	0.007058508
1815	105.7	142.02	141.27818	0.007041262
1816	105.75	140.688	141.12659	0.007107927
1817	105.8	142.881	141.02575	0.006998831
1818	105.85	140.62	140.93567	0.007111364
1819	105.9	134.01	140.85582	0.00746213
1820	105.95	141.378	140.78571	0.007073236
1821	106	138.93	140.72483	0.007197869
1822	106.05	135.111	140.67277	0.007401322
1823	106.1	141.209	140.62915	0.007081702
1824	106.15	138.367	140.59368	0.007227157
1825	106.2	136.422	140.5661	0.007330196
1826	106.25	138.601	140.54621	0.007214955
1827	106.3	145.548	140.53957	0.006870586
1828	106.35	133.736	140.53697	0.007477418
1829	106.4	136.908	140.54763	0.007304175
1830	106.45	136.04	140.56901	0.007350779
1831	106.5	135.468	140.5921	0.007381817
1832	106.55	146.976	140.62016	0.006803832
1833	106.6	140.896	140.65453	0.007097434
1834	106.65	136.382	140.69589	0.007332346
1835	106.7	140.018	140.74695	0.007141939
1836	106.75	136.522	140.8063	0.007324827
1837	106.8	141.313	140.88669	0.00707649
1838	106.85	144.971	140.96643	0.006897931
1839	106.9	143.119	141.05349	0.006987192
1840	106.95	142.79	141.16156	0.007003292
1841	107	141.301	141.2799	0.007077091
1842	107.05	142.583	141.40896	0.007013459
1843	107.1	144.682	141.548	0.00691171
1844	107.15	143.146	141.69904	0.006985875
1845	107.2	141.091	141.86088	0.007087624
1846	107.25	149.419	142.0372	0.006692589
1847	107.3	142.168	142.23014	0.007033932
1848	107.35	147.187	142.44191	0.006794078
1849	107.4	146.435	142.67492	0.006828968
1850	107.45	142.946	142.93184	0.006995649
1851	107.5	142.819	143.21566	0.007001869
1852	107.55	141.437	143.5298	0.007070286
1853	107.6	144.828	143.87831	0.006904742
1854	107.65	145.373	144.26587	0.006878856
1855	107.7	146.062	144.69804	0.006846408
1856	107.75	150.65	145.18146	0.006637902
1857	107.8	146.121	145.72409	0.006843643
1858	107.85	147.507	146.33553	0.006779339
1859	107.9	140.759	147.02746	0.007104341
1860	107.95	145.052	147.81415	0.006894079
1861	108	150.086	148.71324	0.006662847
1862	108.05	147.782	149.74666	0.006766724
1863	108.1	153.355	150.94196	0.006520818
1864	108.15	156.995	152.33428	0.00636963
1865	108.2	161.197	153.96926	0.006203589
1866	108.25	161.227	155.90841	0.006202435
1867	108.3	161.15	158.23973	0.006205399
1868	108.35	168.337	161.10044	0.005940465
1869	108.4	179.065	164.72483	0.005584564
1870	108.45	186.888	169.53742	0.005350798
1871	108.5	205.473	176.3125	0.004866819
1872	108.55	212.923	186.40044	0.004696533
1873	108.6	230.451	201.96356	0.004339317
1874	108.65	252.74	226.07139	0.003956635
1875	108.7	306.867	262.4261	0.003258741
1876	108.75	350.884	314.51243	0.002849945
1877	108.8	401.553	384.13775	0.002490331
1878	108.85	486.648	469.5067	0.002054873
1879	108.9	567.484	562.87315	0.001762164
1880	108.95	634.889	647.96975	0.001575078
1881	109	676.763	700.6744	0.001477622
1882	109.05	655.132	700.66546	0.00152641
1883	109.1	612.493	648.31585	0.001632672
1884	109.15	538.505	563.98807	0.001856993
1885	109.2	463.506	471.1353	0.002157469
1886	109.25	395.297	385.9097	0.002529743
1887	109.3	346.317	316.20787	0.002887528
1888	109.35	284.508	263.9502	0.00351484
1889	109.4	243.522	227.40366	0.004106405
1890	109.45	223.456	203.12987	0.004475154
1891	109.5	208.914	187.45161	0.004786659
1892	109.55	200.385	177.3051	0.004990393
1893	109.6	188.256	170.52037	0.005311916
1894	109.65	176.406	165.7174	0.005668741
1895	109.7	172.864	162.14254	0.005784894
1896	109.75	165.699	159.34554	0.006035039
1897	109.8	166.564	157.08659	0.006003698
1898	109.85	162.256	155.22272	0.0061631
1899	109.9	163.549	153.66749	0.006114376
1900	109.95	152.62	152.36143	0.006552221
1901	110	151.109	151.25595	0.00661774
1902	110.05	150.768	150.31591	0.006632707
1903	110.1	148.793	149.51385	0.006720746
1904	110.15	148.448	148.82802	0.006736366
1905	110.2	150.606	148.24103	0.006639842
1906	110.25	149.513	147.7389	0.006688382
1907	110.3	149.347	147.31032	0.006695816
1908	110.35	150.518	146.94613	0.006643724
1909	110.4	150.056	146.63885	0.006664179
1910	110.45	145.301	146.38242	0.006882265
1911	110.5	143.164	146.17193	0.006984996
1912	110.55	143.963	146.00347	0.006946229
1913	110.6	146.053	145.87392	0.00684683
1914	110.65	145.412	145.78093	0.006877012
1915	110.7	145.138	145.72276	0.006889994
1916	110.75	142.817	145.69832	0.007001968
1917	110.8	151.116	145.70705	0.006617433
1918	110.85	142.808	145.74901	0.007002409
1919	110.9	152.938	145.82481	0.006538597
1920	110.95	153.021	145.9357	0.006535051
1921	111	149.356	146.08364	0.006695412
1922	111.05	146.59	146.2714	0.006821748
1923	111.1	146.018	146.50269	0.006848471
1924	111.15	149.728	146.78238	0.006678778
1925	111.2	155.887	147.11681	0.006414903
1926	111.25	150.905	147.5142	0.006626686
1927	111.3	148.959	147.98527	0.006713257
1928	111.35	147.639	148.54439	0.006773278
1929	111.4	142.503	149.21188	0.007017396
1930	111.45	151.502	150.01853	0.006600573
1931	111.5	153.546	151.01522	0.006512706
1932	111.55	150.594	152.29109	0.006640371
1933	111.6	154.317	154.00509	0.006480167
1934	111.65	152.529	156.43204	0.00655613
1935	111.7	154.936	160.01528	0.006454278
1936	111.75	164.959	165.40121	0.006062112
1937	111.8	169.58	173.41331	0.005896922
1938	111.85	180.035	184.91951	0.005554476
1939	111.9	181.517	200.57023	0.005509126
1940	111.95	211.566	220.42521	0.004726657
1941	112	239.811	243.49488	0.004169951
1942	112.05	285.168	267.18415	0.003506705
1943	112.1	308.853	286.85614	0.003237786
1944	112.15	326.508	296.74432	0.003062712
1945	112.2	315.634	293.37917	0.003168226
1946	112.25	286.284	278.4644	0.003493035
1947	112.3	248.746	257.22978	0.004020165
1948	112.35	227.615	234.87446	0.004393384
1949	112.4	209.627	214.84073	0.004770378
1950	112.45	195.544	198.80812	0.005113939
1951	112.5	180.068	187.19542	0.005553458
1952	112.55	174.303	179.66944	0.005737136
1953	112.6	176.769	175.5855	0.005657101
1954	112.65	173.367	174.32772	0.00576811
1955	112.7	180.106	175.51137	0.005552286
1956	112.75	183.773	179.04179	0.005441496
1957	112.8	181.082	185.04246	0.00552236
1958	112.85	185.291	193.6921	0.005396916
1959	112.9	208.005	205.01373	0.004807577
1960	112.95	221.167	218.64988	0.00452147
1961	113	229.528	233.63118	0.004356767
1962	113.05	247.254	248.22472	0.004044424
1963	113.1	264.718	260.39773	0.003777605
1964	113.15	280.053	269.48636	0.003570753
1965	113.2	289.281	277.86612	0.003456846
1966	113.25	302.987	290.47667	0.003300472
1967	113.3	336.726	312.85216	0.002969774
1968	113.35	379.387	349.45223	0.002635831
1969	113.4	417.533	402.49432	0.00239502
1970	113.45	472.385	470.80751	0.002116917
1971	113.5	539.776	548.42096	0.00185262
1972	113.55	612.52	622.92166	0.0016326
1973	113.6	657.735	675.62179	0.001520369
1974	113.65	679.531	688.53579	0.001471603
1975	113.7	651.604	656.7781	0.001534674
1976	113.75	610.335	591.97155	0.001638444
1977	113.8	534.097	512.55649	0.001872319
1978	113.85	459.232	434.06983	0.002177549
1979	113.9	404.167	365.95623	0.002474225
1980	113.95	351.066	312.32311	0.002848467
1981	114	314.287	273.67618	0.003181805
1982	114.05	298.651	248.52438	0.00334839
1983	114.1	288.783	234.76211	0.003462808
1984	114.15	275.175	230.71413	0.003634051
1985	114.2	276.149	235.73268	0.003621233
1986	114.25	286.685	250.30718	0.003488149
1987	114.3	297.771	275.67743	0.003358285
1988	114.35	337.575	313.21183	0.002962305
1989	114.4	388.39	363.19592	0.002574732
1990	114.45	436.589	423.74103	0.002290484
1991	114.5	499.341	489.37898	0.002002639
1992	114.55	569.229	549.66085	0.001756762
1993	114.6	629.401	589.69788	0.001588812
1994	114.65	642.794	596.44345	0.001555708
1995	114.7	614.838	568.09696	0.001626445
1996	114.75	551.099	515.29557	0.001814556
1997	114.8	486.469	453.02188	0.002055629
1998	114.85	418.683	393.44041	0.002388442
1999	114.9	353.582	343.73985	0.002828198
2000	114.95	313.292	306.67405	0.00319191
2001	115	287.539	281.64834	0.003477789
2002	115.05	275.108	265.71488	0.003634936
2003	115.1	261.594	254.63003	0.003822718
2004	115.15	258.436	244.39942	0.00386943
2005	115.2	246.326	232.91357	0.004059661
2006	115.25	237.194	220.23097	0.004215958
2007	115.3	215.3	207.46353	0.004644682
2008	115.35	198.336	195.70647	0.005041949
2009	115.4	184.079	185.63424	0.00543245
2010	115.45	177.846	177.49492	0.005622842
2011	115.5	169.283	171.21897	0.005907268
2012	115.55	158.993	166.54376	0.006289585
2013	115.6	165.469	163.11359	0.006043428
2014	115.65	164.878	160.6046	0.006065091
2015	115.7	158.197	158.74664	0.006321232
2016	115.75	161.23	157.32574	0.00620232
2017	115.8	151.348	156.2045	0.006607289
2018	115.85	148.746	155.29567	0.00672287
2019	115.9	156.621	154.54527	0.00638484
2020	115.95	158.981	153.91948	0.00629006
2021	116	153.585	153.39617	0.006511053
2022	116.05	159.531	152.95996	0.006268374
2023	116.1	150.418	152.59952	0.006648141
2024	116.15	149.824	152.30617	0.006674498
2025	116.2	151.558	152.07313	0.006598134
2026	116.25	153.161	151.89506	0.006529077
2027	116.3	150.567	151.76779	0.006641562
2028	116.35	140.323	151.68811	0.007126415
2029	116.4	144.699	151.61192	0.006910898
2030	116.45	151.831	151.60463	0.00658627
2031	116.5	150.834	151.6566	0.006629805
2032	116.55	143.528	151.75073	0.006967282
2033	116.6	152.671	151.8786	0.006550032
2034	116.65	152.594	152.04923	0.006553338
2035	116.7	145.002	152.2733	0.006896457
2036	116.75	150.015	152.54409	0.006666
2037	116.8	154.657	152.86413	0.006465921
2038	116.85	145.821	153.23688	0.006857723
2039	116.9	150.428	153.6667	0.006647699
2040	116.95	153.797	154.15895	0.006502077
2041	117	151.702	154.7202	0.006591871
2042	117.05	157.96	155.35845	0.006330717
2043	117.1	152.999	156.08345	0.00653599
2044	117.15	157.752	156.9071	0.006339064
2045	117.2	159.353	157.84394	0.006275376
2046	117.25	161.823	158.91193	0.006179591
2047	117.3	161.773	160.13335	0.006181501
2048	117.35	156.306	161.53641	0.006397707
2049	117.4	152.854	163.15772	0.006542191
2050	117.45	157.521	165.04702	0.00634836
2051	117.5	156.831	167.27634	0.00637629
2052	117.55	160.678	169.95782	0.006223627
2053	117.6	164.654	173.27656	0.006073342
2054	117.65	175.18	177.54689	0.005708414
2055	117.7	183.119	183.29711	0.00546093
2056	117.75	189.022	191.37774	0.005290389
2057	117.8	198.809	203.06578	0.005029953
2058	117.85	219.097	220.10754	0.004564188
2059	117.9	243.505	244.61808	0.004106692
2060	117.95	276.138	278.76052	0.003621378
2061	118	313.843	324.17586	0.003186307
2062	118.05	358.898	381.20093	0.002786307
2063	118.1	411.563	447.92256	0.002429762
2064	118.15	485.42	519.03865	0.002060072
2065	118.2	551.874	584.71221	0.001812008
2066	118.25	605.783	631.03213	0.001650756
2067	118.3	633.92	645.10961	0.001577486
2068	118.35	602.09	623.19929	0.001660881
2069	118.4	551.559	573.05261	0.001813043
2070	118.45	491.602	508.03757	0.002034166
2071	118.5	419.264	440.48389	0.002385132
2072	118.55	373.193	378.81717	0.002679579
2073	118.6	320.82	327.49482	0.003117013
2074	118.65	295.417	287.92123	0.003385046
2075	118.7	265.211	259.48643	0.003770583
2076	118.75	245.975	240.49888	0.004065454
2077	118.8	237.897	228.94079	0.0042035
2078	118.85	233.009	222.9993	0.00429168
2079	118.9	229.111	221.41299	0.004364697
2080	118.95	241.712	223.56236	0.004137155
2081	119	248.163	229.58278	0.00402961
2082	119.05	261.879	240.40486	0.003818557
2083	119.1	281.106	257.7819	0.003557377
2084	119.15	303.001	284.22815	0.003300319
2085	119.2	341.189	322.75899	0.002930927
2086	119.25	381.13	376.33715	0.002623777
2087	119.3	440.683	447.00169	0.002269205
2088	119.35	521.386	534.7428	0.001917965
2089	119.4	595.711	636.157	0.001678666
2090	119.45	703.078	742.7229	0.001422317
2091	119.5	792.951	839.49413	0.001261112
2092	119.55	860.062	906.31676	0.001162707
2093	119.6	907.681	925.66713	0.001101709
2094	119.65	897.717	893.60151	0.001113937
2095	119.7	831.469	822.05673	0.001202691
2096	119.75	749.961	730.63945	0.001333403
2097	119.8	666.378	637.92927	0.00150065
2098	119.85	614.644	557.75667	0.001626958
2099	119.9	556.36	499.06513	0.001797397
2100	119.95	512.528	466.99897	0.001951113
2101	120	506.585	463.98217	0.001974002
2102	120.05	527.274	490.36472	0.001896547
2103	120.1	552.193	544.53418	0.001810961
2104	120.15	612.864	622.4849	0.001631683
2105	120.2	672.995	716.82989	0.001485895
2106	120.25	761.508	815.29861	0.001313184
2107	120.3	860.165	899.71738	0.001162568
2108	120.35	922.557	948.82389	0.001083944
2109	120.4	926.545	947.58041	0.001079278
2110	120.45	905.524	896.30634	0.001104333
2111	120.5	836.138	809.22998	0.001195975
2112	120.55	723.099	705.16402	0.001382936
2113	120.6	620.552	600.00131	0.001611468
2114	120.65	536.366	504.19402	0.001864399
2115	120.7	455.166	423.17156	0.002197001
2116	120.75	396.686	358.60094	0.002520886
2117	120.8	335.41	309.5714	0.002981426
2118	120.85	296.181	273.84523	0.003376314
2119	120.9	270.4	248.51759	0.003698225
2120	120.95	245.154	230.83078	0.004079069
2121	121	228.397	218.49992	0.004378341
2122	121.05	216.826	209.81903	0.004611993
2123	121.1	206.975	203.61154	0.004831501
2124	121.15	199.843	199.11398	0.005003928
2125	121.2	194.795	195.85462	0.005133602
2126	121.25	192.344	193.55787	0.005199018
2127	121.3	183.44	192.08194	0.005451374
2128	121.35	183.863	191.38828	0.005438832
2129	121.4	192.566	191.53605	0.005193025
2130	121.45	184.615	192.69512	0.005416678
2131	121.5	194.73	195.16827	0.005135316
2132	121.55	206.424	199.40794	0.004844398
2133	121.6	202.043	206.00849	0.004949441
2134	121.65	207.833	215.65147	0.004811555
2135	121.7	221.422	228.98888	0.004516263
2136	121.75	230.314	246.46337	0.004341898
2137	121.8	257.518	268.07866	0.003883224
2138	121.85	275.699	293.12915	0.003627144
2139	121.9	303.942	319.87895	0.003290101
2140	121.95	339.044	345.25791	0.00294947
2141	122	375.367	365.00513	0.002664059
2142	122.05	388.591	375.04324	0.0025734
2143	122.1	389.262	373.78606	0.002568964
2144	122.15	377.81	363.2301	0.002646833
2145	122.2	365.224	347.7647	0.002738046
2146	122.25	340.023	332.31543	0.002940978
2147	122.3	328.747	321.3188	0.003041853
2148	122.35	319.937	318.53346	0.003125615
2149	122.4	325.171	327.19632	0.003075305
2150	122.45	354.63	350.16183	0.00281984
2151	122.5	393.896	389.84509	0.002538741
2152	122.55	439.483	447.90421	0.002275401
2153	122.6	516.381	524.65532	0.001936555
2154	122.65	608.463	618.21349	0.001643485
2155	122.7	721.159	723.32325	0.001386657
2156	122.75	834.032	830.01775	0.001198995
2157	122.8	942.18	923.43478	0.001061368
2158	122.85	1025.083	987.38234	0.000975531
2159	122.9	1065.904	1010.93113	0.000938171
2160	122.95	1063.057	992.40009	0.000940683
2161	123	1013.292	937.2535	0.000986882
2162	123.05	924.124	854.73276	0.001082106
2163	123.1	793.489	756.24542	0.001260257
2164	123.15	681.407	653.5408	0.001467552
2165	123.2	573.348	556.32563	0.001744141
2166	123.25	477.746	470.8895	0.002093162
2167	123.3	406.328	400.12046	0.002461066
2168	123.35	347.764	344.28412	0.002875513
2169	123.4	310.597	301.98398	0.003219606
2170	123.45	280.512	271.00175	0.00356491
2171	123.5	252.857	248.9145	0.003954804
2172	123.55	238.436	233.50087	0.004193998
2173	123.6	232.047	222.88917	0.004309472
2174	123.65	215.93	215.67151	0.00463113
2175	123.7	211.589	210.85912	0.004726144
2176	123.75	209.862	207.79954	0.004765036
2177	123.8	208.157	206.09421	0.004804066
2178	123.85	208.649	205.52964	0.004792738
2179	123.9	206.809	206.03316	0.00483538
2180	123.95	212.933	207.65746	0.004696313
2181	124	213.274	210.59648	0.004688804
2182	124.05	212.442	215.23389	0.004707167
2183	124.1	231.043	222.22301	0.004328199
2184	124.15	245.529	232.58902	0.004072839
2185	124.2	254.363	247.82939	0.003931389
2186	124.25	278.055	269.96838	0.003596411
2187	124.3	307.235	301.50492	0.003254838
2188	124.35	338.481	345.18976	0.002954376
2189	124.4	394.635	403.58774	0.002533987
2190	124.45	456.71	478.42247	0.002189573
2191	124.5	539.502	569.73866	0.001853561
2192	124.55	643.176	674.91393	0.001554784
2193	124.6	752.636	787.55235	0.001328664
2194	124.65	873.75	896.50092	0.001144492
2195	124.7	993.76	986.03698	0.001006279
2196	124.75	1114.959	1039.28751	0.000896894
2197	124.8	1120.848	1045.18647	0.000892182
2198	124.85	1081.927	1003.85822	0.000924277
2199	124.9	989.58	925.31272	0.00101053
2200	124.95	848.5	824.00294	0.00117855
2201	125	732.984	714.19816	0.001364286
2202	125.05	619.246	607.39975	0.001614867
2203	125.1	528.343	511.32476	0.00189271
2204	125.15	432.313	430.01554	0.002313139
2205	125.2	364.953	364.55684	0.002740079
2206	125.25	309.847	313.98552	0.003227399
2207	125.3	274.807	276.18681	0.003638917
2208	125.35	250.081	248.60768	0.003998704
2209	125.4	226.936	228.75992	0.004406529
2210	125.45	218.776	214.50775	0.004570885
2211	125.5	207.518	204.17935	0.004818859
2212	125.55	202.537	196.55984	0.004937369
2213	125.6	189.145	190.82192	0.005286949
2214	125.65	180.053	186.43766	0.00555392
2215	125.7	185.344	183.09734	0.005395373
2216	125.75	172.134	180.64586	0.005809428
2217	125.8	178.531	179.03653	0.005601268
2218	125.85	174.298	178.29625	0.0057373
2219	125.9	178.627	178.4945	0.005598258
2220	125.95	175.819	179.70995	0.005687667
2221	126	180.408	181.99197	0.005542991
2222	126.05	178.547	185.31708	0.005600766
2223	126.1	185.957	189.54054	0.005377587
2224	126.15	189.953	194.34109	0.00526446
2225	126.2	193.683	199.16195	0.005163076
2226	126.25	199.711	203.19203	0.005007235
2227	126.3	206.715	205.49966	0.004837578
2228	126.35	203.082	205.3839	0.004924119
2229	126.4	207.508	202.72928	0.004819091
2230	126.45	206.089	198.02657	0.004852273
2231	126.5	193.566	192.07744	0.005166197
2232	126.55	190.668	185.68166	0.005244719
2233	126.6	190.627	179.46943	0.005245847
2234	126.65	177.156	173.85636	0.005644742
2235	126.7	172.249	169.06073	0.005805549
2236	126.75	177.617	165.14529	0.005630092
2237	126.8	165.269	162.06473	0.006050742
2238	126.85	157.661	159.71002	0.006342723
2239	126.9	160.099	157.94541	0.006246135
2240	126.95	153.716	156.63551	0.006505504
2241	127	155.705	155.66192	0.006422401
2242	127.05	157.825	154.93037	0.006336132
2243	127.1	160.676	154.37119	0.006223705
2244	127.15	160.25	153.92888	0.00624025
2245	127.2	158.143	153.5625	0.006323391
2246	127.25	157.497	153.28542	0.006349327
2247	127.3	163.643	153.06904	0.006110863
2248	127.35	158.73	152.90132	0.006300006
2249	127.4	158.429	152.77643	0.006311976
2250	127.45	155.022	152.69056	0.006450697
2251	127.5	153.338	152.64108	0.006521541
2252	127.55	151.669	152.6262	0.006593305
2253	127.6	153.718	152.64473	0.006505419
2254	127.65	154.397	152.69598	0.00647681
2255	127.7	157.921	152.77969	0.00633228
2256	127.75	159.111	152.89598	0.006284921
2257	127.8	160.051	153.04534	0.006248008
2258	127.85	153.174	153.22863	0.006528523
2259	127.9	156.708	153.44705	0.006381295
2260	127.95	156.178	153.70221	0.00640295
2261	128	154.091	153.99608	0.006489672
2262	128.05	157.407	154.3311	0.006352958
2263	128.1	155.927	154.71016	0.006413257
2264	128.15	156.231	155.13669	0.006400778
2265	128.2	157.731	155.61473	0.006339908
2266	128.25	157.573	156.14899	0.006346265
2267	128.3	152.767	156.745	0.006545916
2268	128.35	157.039	157.4092	0.006367845
2269	128.4	161.746	158.14914	0.006182533
2270	128.45	159.145	158.97363	0.006283578
2271	128.5	161.073	159.89304	0.006208365
2272	128.55	162.124	160.91957	0.006168118
2273	128.6	160.956	162.06768	0.006212878
2274	128.65	157.21	163.35458	0.006360919
2275	128.7	156.931	164.80096	0.006372227
2276	128.75	166.331	166.43208	0.006012108
2277	128.8	173.4	168.27943	0.005767013
2278	128.85	178.107	170.38356	0.005614602
2279	128.9	175.666	172.79894	0.005692621
2280	128.95	175.483	175.60232	0.005698558
2281	129	181.682	178.90676	0.005504123
2282	129.05	182.681	182.88419	0.005474023
2283	129.1	196.393	187.79942	0.005091831
2284	129.15	205.802	194.05744	0.004859039
2285	129.2	217.558	202.26258	0.004596475
2286	129.25	227.938	213.28202	0.004387158
2287	129.3	242.606	228.29775	0.00412191
2288	129.35	262.776	248.82148	0.003805523
2289	129.4	294.365	276.64152	0.003397143
2290	129.45	330.403	313.67235	0.003026607
2291	129.5	369.905	361.69071	0.002703397
2292	129.55	411.466	421.96352	0.002430334
2293	129.6	481.38	494.79117	0.002077361
2294	129.65	552.169	578.98543	0.00181104
2295	129.7	636.85	671.27133	0.001570228
2296	129.75	741.618	765.61421	0.001348403
2297	129.8	832.004	852.73028	0.001201917
2298	129.85	896.263	920.6812	0.001115744
2299	129.9	931.095	957.74651	0.001074004
2300	129.95	923.32	957.05152	0.001083048
2301	130	878.126	919.62404	0.001138789
2302	130.05	806.378	853.30015	0.001240113
2303	130.1	715.592	768.99155	0.001397444
2304	130.15	629.856	677.33302	0.001587664
2305	130.2	561.443	586.90766	0.001781125
2306	130.25	488.384	503.69824	0.002047569
2307	130.3	436.479	431.19626	0.002291061
2308	130.35	368.145	370.82008	0.002716321
2309	130.4	325.146	322.44675	0.003075541
2310	130.45	300.441	284.94492	0.003328441
2311	130.5	267.777	256.64631	0.003734451
2312	130.55	240.988	235.72029	0.004149584
2313	130.6	231.557	220.43508	0.004318591
2314	130.65	230.815	209.30775	0.004332474
2315	130.7	221.956	201.16169	0.004505397
2316	130.75	213.061	195.11927	0.004693492
2317	130.8	202.609	190.55832	0.004935615
2318	130.85	193.638	187.05543	0.005164276
2319	130.9	201.972	184.3311	0.004951181
2320	130.95	193.382	182.20444	0.005171112
2321	131	196.731	180.55954	0.005083083
2322	131.05	192.082	179.31553	0.00520611
2323	131.1	187.09	178.43837	0.005345021
2324	131.15	189.331	177.89612	0.005281755
2325	131.2	189.205	177.67483	0.005285273
2326	131.25	188.197	177.77461	0.005313581
2327	131.3	185.569	178.21098	0.005388831
2328	131.35	189.646	179.01924	0.005272982
2329	131.4	195.286	180.26307	0.005120695
2330	131.45	195.45	182.04785	0.005116398
2331	131.5	194.973	184.53953	0.005128915
2332	131.55	202.135	187.98884	0.004947189
2333	131.6	213.423	192.7584	0.004685531
2334	131.65	213.575	199.34796	0.004682196
2335	131.7	229.082	208.40827	0.004365249
2336	131.75	240.828	220.73354	0.004152341
2337	131.8	247.343	237.21896	0.004042969
2338	131.85	272.746	258.77459	0.003666415
2339	131.9	300.706	286.1927	0.003325507
2340	131.95	328.301	319.9742	0.003045985
2341	132	361.597	360.12469	0.00276551
2342	132.05	404.833	405.92569	0.002470154
2343	132.1	453.373	455.6749	0.002205689
2344	132.15	495.993	506.40066	0.002016157
2345	132.2	553.452	553.66765	0.001806841
2346	132.25	589.79	591.83591	0.001695519
2347	132.3	625.26	615.26585	0.001599335
2348	132.35	649.242	620.29465	0.001540258
2349	132.4	634.187	606.76452	0.001576822
2350	132.45	590.69	577.89521	0.001692935
2351	132.5	553.254	538.82989	0.001807488
2352	132.55	495.029	495.07189	0.002020084
2353	132.6	451.813	451.50445	0.002213305
2354	132.65	404.267	411.96682	0.002473613
2355	132.7	371.718	379.15377	0.002690211
2356	132.75	345.611	354.67473	0.002893426
2357	132.8	329.101	339.19865	0.003038581
2358	132.85	316.654	332.54318	0.003158021
2359	132.9	317.669	333.86005	0.003147931
2360	132.95	331.754	341.72897	0.003014282
2361	133	361.771	354.12976	0.00276418
2362	133.05	381.355	368.48259	0.002622229
2363	133.1	400.09	381.72133	0.002499438
2364	133.15	420.083	390.66264	0.002380482
2365	133.2	418.083	392.7525	0.00239187
2366	133.25	415.063	386.85434	0.002409273
2367	133.3	386.573	373.49595	0.002586834
2368	133.35	359.553	354.411	0.002781231
2369	133.4	333.163	331.84477	0.003001534
2370	133.45	298.541	307.95618	0.003349624
2371	133.5	264.212	284.49764	0.003784839
2372	133.55	237.22	262.735	0.004215496
2373	133.6	218.766	243.45474	0.004571094
2374	133.65	214.942	227.02784	0.004652418
2375	133.7	204.052	213.50003	0.004900712
2376	133.75	195.167	202.68822	0.005123817
2377	133.8	184.772	194.27041	0.005412075
2378	133.85	176.738	187.86194	0.005658093
2379	133.9	174.757	183.07346	0.005722231
2380	133.95	177.265	179.55428	0.005641272
2381	134	171.195	176.99763	0.005841292
2382	134.05	167.269	175.16592	0.005978394
2383	134.1	169.299	173.88094	0.005906709
2384	134.15	167.746	172.99646	0.005961394
2385	134.2	170.078	172.45699	0.005879655
2386	134.25	164.938	172.19696	0.006062884
2387	134.3	164.326	172.18076	0.006085464
2388	134.35	164.851	172.39151	0.006066084
2389	134.4	168.283	172.82853	0.005942371
2390	134.45	163.026	173.50569	0.006133991
2391	134.5	165.457	174.45353	0.006043866
2392	134.55	170.479	175.72271	0.005865825
2393	134.6	174.975	177.39005	0.005715102
2394	134.65	174.917	179.56615	0.005716997
2395	134.7	171.122	182.40234	0.005843784
2396	134.75	181.144	186.09616	0.00552047
2397	134.8	190.412	190.8903	0.00525177
2398	134.85	195.489	197.07473	0.005115377
2399	134.9	197.954	204.96174	0.005051679
2400	134.95	216.148	214.86438	0.00462646
2401	135	226.182	227.06091	0.004421218
2402	135.05	240.957	241.75196	0.004150118
2403	135.1	249.063	259.01365	0.004015048
2404	135.15	272.493	278.74823	0.003669819
2405	135.2	297.637	300.63085	0.003359797
2406	135.25	330.271	324.05271	0.003027817
2407	135.3	356.196	348.08458	0.002807443
2408	135.35	388.246	371.51064	0.002575687
2409	135.4	411.087	393.08995	0.002432575
2410	135.45	430.518	412.02698	0.002322783
2411	135.5	439.575	428.44736	0.002274925
2412	135.55	449.913	443.52192	0.002222652
2413	135.6	457.364	459.12921	0.002186442
2414	135.65	460.682	477.28722	0.002170695
2415	135.7	471.668	499.6296	0.002120135
2416	135.75	484.431	527.02654	0.002064277
2417	135.8	508.879	559.3159	0.001965104
2418	135.85	527.942	595.09036	0.001894147
2419	135.9	562.055	631.54837	0.001779185
2420	135.95	591.833	664.54646	0.001689666
2421	136	637.024	689.12792	0.0015698
2422	136.05	654.406	700.65341	0.001528103
2423	136.1	662.156	696.39318	0.001510218
2424	136.15	650.263	676.36481	0.001537839
2425	136.2	615.855	643.01211	0.001623759
2426	136.25	552.871	600.18797	0.00180874
2427	136.3	523.442	552.08404	0.001910431
2428	136.35	478.655	502.5251	0.002089187
2429	136.4	426.409	454.62837	0.002345166
2430	136.45	386.243	410.69664	0.002589044
2431	136.5	354.227	372.24443	0.002823048
2432	136.55	326.788	340.10095	0.003060088
2433	136.6	303.509	314.55254	0.003294795
2434	136.65	291.84	295.49584	0.003426535
2435	136.7	275.385	282.58192	0.00363128
2436	136.75	281.286	275.33848	0.003555101
2437	136.8	273.649	273.26525	0.003654316
2438	136.85	269.436	275.89682	0.003711457
2439	136.9	281.868	282.81474	0.00354776
2440	136.95	284.309	293.67416	0.0035173
2441	137	302.284	308.16331	0.003308147
2442	137.05	320.766	325.95617	0.003117537
2443	137.1	353.474	346.67524	0.002829062
2444	137.15	364.911	369.8881	0.002740394
2445	137.2	389.722	395.17434	0.002565932
2446	137.25	404.097	422.24767	0.002474653
2447	137.3	429.825	450.98582	0.002326528
2448	137.35	447.963	481.32913	0.002232327
2449	137.4	466.536	513.09123	0.002143457
2450	137.45	492.023	545.7624	0.002032425
2451	137.5	532.283	578.32139	0.0018787
2452	137.55	577.749	609.05341	0.001730855
2453	137.6	602.814	635.47124	0.001658886
2454	137.65	659.773	654.54792	0.001515673
2455	137.7	672.966	663.4087	0.001485959
2456	137.75	684.563	660.28855	0.001460786
2457	137.8	694.271	645.21425	0.00144036
2458	137.85	667.15	619.98831	0.001498913
2459	137.9	619.108	587.58905	0.001615227
2460	137.95	570.104	551.43743	0.001754066
2461	138	515.953	514.85599	0.001938161
2462	138.05	463.518	480.78301	0.002157414
2463	138.1	425.782	451.64109	0.00234862
2464	138.15	400.527	429.29954	0.002496711
2465	138.2	385.133	415.09795	0.002596506
2466	138.25	381.371	409.87634	0.002622119
2467	138.3	381.584	414.0073	0.002620655
2468	138.35	380.627	427.41598	0.002627244
2469	138.4	394.893	449.58355	0.002532332
2470	138.45	413.955	479.52891	0.002415722
2471	138.5	450.231	515.76293	0.002221082
2472	138.55	490.242	556.21417	0.002039809
2473	138.6	536.142	598.15368	0.001865178
2474	138.65	586.932	638.21298	0.001703775
2475	138.7	633.073	672.66368	0.001579597
2476	138.75	662.94	698.08629	0.001508432
2477	138.8	685.747	712.28464	0.001458264
2478	138.85	706.75	714.97275	0.001414927
2479	138.9	697.107	707.78397	0.0014345
2480	138.95	683.708	693.73417	0.001462613
2481	139	664.484	676.31461	0.001504927
2482	139.05	629.548	658.83664	0.001588441
2483	139.1	601.001	643.98101	0.001663891
2484	139.15	582.559	633.53905	0.001716564
2485	139.2	569.848	628.26922	0.001754854
2486	139.25	569.51	627.82091	0.001755895
2487	139.3	591.788	630.7291	0.001689794
2488	139.35	591.282	634.54046	0.00169124
2489	139.4	619.154	636.1793	0.001615107
2490	139.45	639.751	632.60582	0.001563108
2491	139.5	648.413	621.60545	0.001542227
2492	139.55	638.847	602.34252	0.00156532
2493	139.6	608.947	575.40132	0.001642179
2494	139.65	580.283	542.38569	0.001723297
2495	139.7	520.433	505.37929	0.001921477
2496	139.75	471.741	466.50915	0.002119807
2497	139.8	433.538	427.67979	0.002306603
2498	139.85	391.36	390.44157	0.002555192
2499	139.9	345.796	355.9422	0.002891878
2500	139.95	323.279	324.93009	0.003093303
2501	140	291.477	297.79265	0.003430802
2502	140.05	268.895	274.61648	0.003718924
2503	140.1	247.731	255.25822	0.004036637
2504	140.15	236.896	239.41657	0.004221262
2505	140.2	223.799	226.69901	0.004468295
2506	140.25	216.09	216.67893	0.004627701
2507	140.3	198.815	208.94107	0.005029802
2508	140.35	191.336	203.11467	0.005226408
2509	140.4	188.671	198.89509	0.005300232
2510	140.45	185.67	196.05558	0.0053859
2511	140.5	179.724	194.45145	0.005564087
2512	140.55	188.709	194.01836	0.005299164
2513	140.6	178.242	194.75281	0.00561035
2514	140.65	179.963	196.73504	0.005556698
2515	140.7	176.109	200.11306	0.005678302
2516	140.75	174.139	205.03503	0.005742539
2517	140.8	185.89	211.67042	0.005379526
2518	140.85	196.034	220.17556	0.005101156
2519	140.9	198.471	230.66536	0.005038519
2520	140.95	217.457	243.18117	0.00459861
2521	141	219.9	257.65691	0.004547522
2522	141.05	232.796	273.88406	0.004295606
2523	141.1	265.999	291.47388	0.003759413
2524	141.15	285.665	309.81717	0.003500604
2525	141.2	315.322	328.04822	0.003171361
2526	141.25	342.293	345.03611	0.002921474
2527	141.3	380.189	359.44668	0.002630271
2528	141.35	405.164	369.91832	0.002468136
2529	141.4	407.993	375.34058	0.002451022
2530	141.45	415.512	375.13203	0.002406669
2531	141.5	412.668	369.37394	0.002423255
2532	141.55	393.702	358.73755	0.002539992
2533	141.6	362.739	344.27173	0.002756803
2534	141.65	333.911	327.17049	0.00299481
2535	141.7	308.503	308.56669	0.00324146
2536	141.75	274.877	289.54093	0.003637991
2537	141.8	252.952	270.92104	0.003953319
2538	141.85	232.334	253.34417	0.004304148
2539	141.9	219.477	237.24997	0.004556286
2540	141.95	202.523	222.897	0.004937711
2541	142	193.811	210.39087	0.005159666
2542	142.05	186.605	199.71461	0.005358913
2543	142.1	179.666	190.76283	0.005565883
2544	142.15	174.367	183.37083	0.00573503
2545	142.2	170.322	177.34196	0.005871232
2546	142.25	163.223	172.46951	0.006126588
2547	142.3	165.844	168.55291	0.006029763
2548	142.35	163.637	165.40881	0.006111087
2549	142.4	158.709	162.87721	0.00630084
2550	142.45	157.79	160.82389	0.006337537
2551	142.5	157.612	159.13995	0.006344695
2552	142.55	159.37	157.73955	0.006274707
2553	142.6	154.961	156.55661	0.006453237
2554	142.65	159.188	155.5413	0.006281881
2555	142.7	156.983	154.65655	0.006370117
2556	142.75	161.749	153.87508	0.006182418
2557	142.8	151.659	153.17684	0.00659374
2558	142.85	152.044	152.54703	0.006577043
2559	142.9	155.089	151.97464	0.006447911
2560	142.95	158.012	151.45128	0.006328633
2561	143	159.443	150.97046	0.006271834
2562	143.05	153.62	150.52703	0.006509569
2563	143.1	159.531	150.11677	0.006268374
2564	143.15	157.85	149.73618	0.006335128
2565	143.2	160.715	149.38229	0.006222195
2566	143.25	150.403	149.05255	0.006648804
2567	143.3	157.559	148.74475	0.006346829
2568	143.35	149.5	148.45691	0.006688963
2569	143.4	152.57	148.18734	0.006554368
2570	143.45	154.038	147.93449	0.006491905
2571	143.5	156.362	147.69701	0.006395416
2572	143.55	155.242	147.47367	0.006441556
2573	143.6	148.486	147.26338	0.006734642
2574	143.65	154.023	147.06516	0.006492537
2575	143.7	156.882	146.87812	0.006374218
2576	143.75	157.035	146.70146	0.006368007
2577	143.8	162.055	146.53446	0.006170745
2578	143.85	160.8	146.37644	0.006218905
2579	143.9	160.974	146.22682	0.006212183
2580	143.95	159.942	146.08503	0.006252266
2581	144	152.587	145.94344	0.006553638
2582	144.05	158.356	145.81354	0.006314885
2583	144.1	154.081	145.69148	0.006490093
2584	144.15	157.056	145.57613	0.006367156
2585	144.2	155.009	145.46685	0.006451238
2586	144.25	153.415	145.36302	0.006518267
2587	144.3	156.998	145.26428	0.006369508
2588	144.35	159.303	145.17036	0.006277346
2589	144.4	160.915	145.081	0.006214461
2590	144.45	156.818	144.99596	0.006376819
2591	144.5	159.757	144.91502	0.006259507
2592	144.55	157.308	144.83796	0.006356956
2593	144.6	158.891	144.76461	0.006293623
2594	144.65	159.957	144.69478	0.00625168
2595	144.7	166.597	144.6283	0.006002509
2596	144.75	167.375	144.56502	0.005974608
2597	144.8	171.2	144.50478	0.005841121
2598	144.85	169.912	144.44747	0.0058854
2599	144.9	175.029	144.39293	0.005713339
2600	144.95	185.023	144.34107	0.005404733
2601	145	181.349	144.29175	0.005514229



_refine_ls_goodness_of_fit_all
1.9
_journal_year
2009
_journal_page_last
299
_symmetry_space_group_name_H-M
'R 3 c'
_pd_char_colour
white
_cell_angle_beta
90
_pd_spec_mount_mode
reflection
_cell_angle_alpha
90
_diffrn_radiation_monochromator
'Ge [115]'
_chemical_formula_sum
'K0.05 Na0.95 Nb1 O3'
_chemical_formula_structural
'K Na (Nb O3)'
_journal_page_first
291
_chemical_formula_weight
164.71
_pd_proc_info_excluded_regions
'145-160\% 2\q'
_pd_meas_2theta_range_max
160
_diffrn_measurement_device_type
D2B
_symmetry_cell_setting
trigonal
_diffrn_ambient_temperature
200
_journal_coeditor_code
WF5039
_pd_meas_2theta_range_inc
0.05
_pd_spec_size_axial
20
_journal_name_full
'Acta Crystallographica, Section B'
_journal_volume
65
_cell_volume
364.354(8)
_journal_issue
3
_pd_spec_mounting
'Vanadium can packed with powder'
_pd_spec_shape
cylinder
_pd_proc_ls_prof_R_factor
0.053
_diffrn_radiation_wavelength
1.60
_pd_spec_size_equat
50
_pd_block_diffractogram_id
KNN05at200K
_pd_spec_size_thick
20
_pd_meas_scan_method
step
_diffrn_radiation_type
Neutron
_journal_paper_category
FA
_journal_date_accepted
2009-03-25
_pd_proc_ls_prof_wR_factor
0.069
_cell_angle_gamma
120
_refine_ls_number_parameters
24
_computing_structure_refinement
'TOPAS Academic'
_cell_formula_units_Z
6
_cell_length_a
5.52539(5)
_cell_length_b
5.52539(5)
_pd_meas_number_of_points
2601
_cell_length_c
13.78058(17)
_chemical_name_systematic
'Sodium Potassium Niobate'
_pd_proc_ls_prof_wR_expected
0.019
_journal_date_recd_electronic
2008-12-13
_pd_meas_2theta_range_min
0.10
loop_
_symmetry_equiv_pos_as_xyz

;-x+y, -x, z
;

;-x+y, y, z+1/2
;

;-x+y+1/3, -x-1/3, z-1/3
;

;-x+y+1/3, y-1/3, z+1/6
;

;-x+y-1/3, -x+1/3, z+1/3
;

;-x+y-1/3, y+1/3, z-1/6
;

;-y, -x, z+1/2
;

;-y, x-y, z
;

;-y+1/3, -x-1/3, z+1/6
;

;-y+1/3, x-y-1/3, z-1/3
;

;-y-1/3, -x+1/3, z-1/6
;

;-y-1/3, x-y+1/3, z+1/3
;

;x, y, z
;

;x, x-y, z+1/2
;

;x+1/3, y-1/3, z-1/3
;

;x+1/3, x-y-1/3, z+1/6
;

;x-1/3, y+1/3, z+1/3
;

;x-1/3, x-y+1/3, z-1/6
;

loop_
_atom_type_symbol
Na1+
K1+
Nb5+
O2-

loop_
_atom_site_type_symbol
_atom_site_label
_atom_site_fract_x
_atom_site_fract_y
_atom_site_fract_z
_atom_site_occupancy
Na+1 Na1 0 0 0.2707(2) 0.95
K+1 K1 0 0 0.2707(2) 0.05
Nb+5 Nb1 0 0 0.01538(11) 1
O-2 O1 0.1079(2) 0.3367(4) 0.08333 1

