data_KNN05at250K
_pd_block_id     KNN05at250K
_pd_proc_2theta_range_min  15 
_pd_proc_2theta_range_max 145
_pd_proc_ls_background_function   'Chebychev with six coefficients' 

loop_
      
_pd_data_point_id                           
      
_pd_meas_2theta_corrected     
_pd_meas_intensity_total                     
      
_pd_calc_intensity_total                     
      
_pd_proc_ls_weight    
1	15	122.605	121.0189	0.008156274
2	15.05	120.026	121.00639	0.008331528
3	15.1	122.133	120.99384	0.008187795
4	15.15	119.813	120.98125	0.00834634
5	15.2	119.639	120.96863	0.008358478
6	15.25	120.207	120.95597	0.008318983
7	15.3	119.484	120.94328	0.008369321
8	15.35	120.242	120.93057	0.008316562
9	15.4	124.681	120.91783	0.008020468
10	15.45	128.302	120.90506	0.007794111
11	15.5	122.309	120.89228	0.008176013
12	15.55	123.42	120.87948	0.008102415
13	15.6	125.428	120.86666	0.007972701
14	15.65	118.336	120.85383	0.008450514
15	15.7	117.226	120.84099	0.008530531
16	15.75	120.992	120.82814	0.008265009
17	15.8	121.038	120.81529	0.008261868
18	15.85	122.022	120.80243	0.008195243
19	15.9	121.144	120.78958	0.008254639
20	15.95	117.683	120.77673	0.008497404
21	16	117.937	120.76389	0.008479103
22	16.05	122.974	120.75106	0.0081318
23	16.1	120.571	120.73825	0.008293868
24	16.15	125.719	120.72545	0.007954247
25	16.2	116.866	120.71267	0.008556809
26	16.25	113.888	120.69992	0.008780556
27	16.3	120.744	120.6872	0.008281985
28	16.35	120.073	120.67452	0.008328267
29	16.4	118.61	120.66187	0.008430992
30	16.45	116.609	120.64926	0.008575667
31	16.5	122.073	120.63669	0.00819182
32	16.55	123.325	120.62418	0.008108656
33	16.6	117.632	120.61172	0.008501088
34	16.65	120.485	120.59932	0.008299788
35	16.7	125.198	120.58698	0.007987348
36	16.75	119.634	120.57471	0.008358828
37	16.8	115.107	120.56252	0.008687569
38	16.85	124.148	120.5504	0.008054902
39	16.9	125.7	120.53837	0.007955449
40	16.95	126.561	120.52643	0.007901328
41	17	121.843	120.51459	0.008207283
42	17.05	114.925	120.50285	0.008701327
43	17.1	122.094	120.49122	0.008190411
44	17.15	121.283	120.47971	0.008245179
45	17.2	117.447	120.46832	0.008514479
46	17.25	116.633	120.45706	0.008573903
47	17.3	115.552	120.44593	0.008654112
48	17.35	113.864	120.43495	0.008782407
49	17.4	120.702	120.42413	0.008284867
50	17.45	119.169	120.41346	0.008391444
51	17.5	118.091	120.40297	0.008468046
52	17.55	116.5	120.39265	0.008583691
53	17.6	122.845	120.38252	0.008140339
54	17.65	121.072	120.37263	0.008259548
55	17.7	124.052	120.36307	0.008061136
56	17.75	120.479	120.35388	0.008300202
57	17.8	121.72	120.3451	0.008215577
58	17.85	123.506	120.33679	0.008096773
59	17.9	118.044	120.32903	0.008471417
60	17.95	115.982	120.32192	0.008622028
61	18	121.723	120.31566	0.008215374
62	18.05	119.759	120.31062	0.008350103
63	18.1	116.847	120.30797	0.0085582
64	18.15	117.351	120.31198	0.008521444
65	18.2	121.358	120.30531	0.008240083
66	18.25	118.265	120.29908	0.008455587
67	18.3	119.52	120.29332	0.008366801
68	18.35	117.192	120.28808	0.008533006
69	18.4	122.945	120.28343	0.008133718
70	18.45	122.155	120.27947	0.008186321
71	18.5	128.306	120.2764	0.007793868
72	18.55	122.893	120.27486	0.00813716
73	18.6	121.064	120.2758	0.008260094
74	18.65	116.487	120.27296	0.008584649
75	18.7	115.433	120.27066	0.008663034
76	18.75	123.075	120.26893	0.008125127
77	18.8	121.312	120.26781	0.008243208
78	18.85	120.304	120.26731	0.008312276
79	18.9	120.476	120.26748	0.008300408
80	18.95	118.79	120.26834	0.008418217
81	19	120.317	120.26994	0.008311377
82	19.05	118.126	120.27231	0.008465537
83	19.1	124.92	120.27548	0.008005123
84	19.15	121.52	120.27951	0.008229098
85	19.2	118.226	120.28443	0.008458376
86	19.25	121.12	120.29029	0.008256275
87	19.3	120.026	120.29714	0.008331528
88	19.35	119.161	120.30504	0.008392007
89	19.4	123.188	120.31405	0.008117674
90	19.45	120.867	120.32421	0.008273557
91	19.5	123.822	120.3356	0.008076109
92	19.55	120.879	120.34829	0.008272736
93	19.6	120.253	120.36234	0.008315801
94	19.65	118.054	120.37785	0.0084707
95	19.7	122.881	120.39488	0.008137955
96	19.75	123.865	120.41352	0.008073306
97	19.8	127.49	120.43389	0.007843752
98	19.85	121.668	120.45607	0.008219088
99	19.9	125.519	120.48017	0.007966921
100	19.95	120.951	120.50632	0.008267811
101	20	117.449	120.53464	0.008514334
102	20.05	115.665	120.56527	0.008645658
103	20.1	114.713	120.59835	0.008717408
104	20.15	119.803	120.63405	0.008347036
105	20.2	121.588	120.67253	0.008224496
106	20.25	121.342	120.71399	0.00824117
107	20.3	118	120.75862	0.008474576
108	20.35	121.036	120.80664	0.008262005
109	20.4	116.671	120.85829	0.00857111
110	20.45	114.531	120.91383	0.008731261
111	20.5	123.26	120.97354	0.008112932
112	20.55	121.949	121.03772	0.008200149
113	20.6	121.912	121.10672	0.008202638
114	20.65	112.986	121.18089	0.008850654
115	20.7	112.626	121.26065	0.008878944
116	20.75	118.269	121.34643	0.008455301
117	20.8	121.533	121.43873	0.008228218
118	20.85	125.828	121.53807	0.007947357
119	20.9	114.604	121.64507	0.008725699
120	20.95	116.18	121.76036	0.008607333
121	21	115.591	121.88468	0.008651193
122	21.05	113.829	122.01886	0.008785107
123	21.1	116.311	122.16378	0.008597639
124	21.15	125.83	122.32047	0.00794723
125	21.2	121.838	122.49006	0.00820762
126	21.25	122.606	122.67383	0.008156208
127	21.3	118.78	122.87321	0.008418926
128	21.35	119.923	123.08985	0.008338684
129	21.4	125.283	123.32558	0.007981929
130	21.45	121.353	123.58251	0.008240423
131	21.5	122.363	123.86304	0.008172405
132	21.55	123.552	124.16995	0.008093758
133	21.6	124.454	124.5064	0.008035097
134	21.65	124.006	124.87609	0.008064126
135	21.7	126.138	125.2833	0.007927825
136	21.75	128.466	125.73303	0.007784161
137	21.8	126.065	126.23119	0.007932416
138	21.85	128.055	126.78472	0.007809145
139	21.9	131.496	127.40193	0.007604794
140	21.95	129.529	128.09277	0.007720279
141	22	129.672	128.86925	0.007711765
142	22.05	129.185	129.74609	0.007740837
143	22.1	132.12	130.74151	0.007568877
144	22.15	137.598	131.87877	0.007267547
145	22.2	139.994	133.18894	0.007143163
146	22.25	149.326	134.71675	0.006696757
147	22.3	155.921	136.53256	0.006413504
148	22.35	152.525	138.75509	0.006556302
149	22.4	158.982	141.58926	0.00629002
150	22.45	164.157	145.37923	0.006091729
151	22.5	169.744	150.66706	0.005891224
152	22.55	176.594	158.23467	0.005662707
153	22.6	191.475	169.09962	0.005222614
154	22.65	197.982	184.43645	0.005050964
155	22.7	207.289	205.41216	0.004824183
156	22.75	222.833	232.98855	0.004487666
157	22.8	248.523	267.85195	0.004023772
158	22.85	282.247	310.58471	0.003542996
159	22.9	307.307	362.00007	0.003254075
160	22.95	337.916	423.53425	0.002959315
161	23	398.454	497.64914	0.0025097
162	23.05	466.521	588.13005	0.002143526
163	23.1	551.566	699.93598	0.00181302
164	23.15	674.426	837.97909	0.001482742
165	23.2	811.645	1004.19641	0.001232066
166	23.25	1008.073	1192.97822	0.000991992
167	23.3	1273.86	1386.46568	0.000785016
168	23.35	1457.079	1552.47355	0.000686305
169	23.4	1603.541	1647.80023	0.00062362
170	23.45	1626.721	1630.2647	0.000614734
171	23.5	1527.496	1483.82293	0.000654666
172	23.55	1313.879	1241.29148	0.000761105
173	23.6	1069.354	966.58895	0.000935144
174	23.65	848.423	714.5921	0.001178657
175	23.7	662.074	514.49879	0.001510405
176	23.75	535.158	372.90648	0.001868607
177	23.8	427.72	281.91905	0.002337978
178	23.85	352.454	227.5957	0.00283725
179	23.9	295.311	196.37117	0.003386261
180	23.95	244.023	178.1888	0.004097974
181	24	206.108	166.86634	0.004851825
182	24.05	182.792	159.10354	0.005470699
183	24.1	160.352	153.29999	0.00623628
184	24.15	145.334	148.70455	0.006880702
185	24.2	136.484	144.94532	0.007326866
186	24.25	125.459	141.81225	0.007970731
187	24.3	131.839	139.16868	0.007585009
188	24.35	128.176	136.91675	0.007801773
189	24.4	122.761	134.98296	0.00814591
190	24.45	122.603	133.31093	0.008156407
191	24.5	123.292	131.85772	0.008110826
192	24.55	124.537	130.59988	0.008029742
193	24.6	118.898	129.47799	0.00841057
194	24.65	119.424	128.47272	0.008373526
195	24.7	119.174	127.57626	0.008391092
196	24.75	128.437	126.77312	0.007785918
197	24.8	129.583	126.05048	0.007717062
198	24.85	121.602	125.39763	0.008223549
199	24.9	117.002	124.80559	0.008546862
200	24.95	124.649	124.26678	0.008022527
201	25	120.74	123.77476	0.008282259
202	25.05	121.356	123.32405	0.008240219
203	25.1	117.448	122.90993	0.008514406
204	25.15	119.28	122.52835	0.008383635
205	25.2	121.863	122.1758	0.008205936
206	25.25	122.488	121.84924	0.008164065
207	25.3	121.262	121.54602	0.008246607
208	25.35	121.163	121.26379	0.008253345
209	25.4	120.76	121.00053	0.008280888
210	25.45	117.695	120.75443	0.008496538
211	25.5	117.019	120.52395	0.008545621
212	25.55	118.608	120.30786	0.008431134
213	25.6	120.438	120.10501	0.008303027
214	25.65	116.031	119.91438	0.008618386
215	25.7	120.498	119.73512	0.008298893
216	25.75	122.006	119.56661	0.008196318
217	25.8	116.23	119.40868	0.008603631
218	25.85	116.564	119.26298	0.008578978
219	25.9	114.228	119.12953	0.008754421
220	25.95	115.079	118.99117	0.008689683
221	26	120.567	118.85942	0.008294144
222	26.05	122.633	118.7338	0.008154412
223	26.1	123.805	118.61388	0.008077218
224	26.15	116.004	118.49924	0.008620392
225	26.2	120.953	118.38955	0.008267674
226	26.25	120.687	118.28471	0.008285897
227	26.3	124.303	118.18467	0.008044858
228	26.35	118.371	118.08929	0.008448015
229	26.4	117.81	117.99853	0.008488244
230	26.45	114.464	117.91253	0.008736371
231	26.5	116.646	117.83185	0.008572947
232	26.55	125.384	117.75852	0.007975499
233	26.6	121.44	117.70529	0.008234519
234	26.65	118.57	117.62819	0.008433837
235	26.7	122.051	117.55368	0.008193296
236	26.75	119.208	117.48163	0.008388699
237	26.8	111.427	117.41189	0.008974486
238	26.85	114.472	117.34436	0.008735761
239	26.9	114.935	117.2789	0.00870057
240	26.95	113.998	117.21542	0.008772084
241	27	116.41	117.15381	0.008590327
242	27.05	120.687	117.09399	0.008285897
243	27.1	120.476	117.03586	0.008300408
244	27.15	117.384	116.97935	0.008519049
245	27.2	121.625	116.92438	0.008221994
246	27.25	115.337	116.87088	0.008670245
247	27.3	116.259	116.81879	0.008601485
248	27.35	120.521	116.76805	0.008297309
249	27.4	112.326	116.7186	0.008902658
250	27.45	117.275	116.67039	0.008526967
251	27.5	119.561	116.62337	0.008363931
252	27.55	117.84	116.5775	0.008486083
253	27.6	117.428	116.53273	0.008515857
254	27.65	118.299	116.48902	0.008453157
255	27.7	117.58	116.44634	0.008504848
256	27.75	119.547	116.40465	0.008364911
257	27.8	120.595	116.36392	0.008292218
258	27.85	121.8	116.32413	0.008210181
259	27.9	113.542	116.28523	0.008807314
260	27.95	113.267	116.24722	0.008828697
261	28	119.34	116.21006	0.00837942
262	28.05	121.327	116.17374	0.008242188
263	28.1	114.041	116.13823	0.008768776
264	28.15	117.913	116.10352	0.008480829
265	28.2	123.67	116.06958	0.008086035
266	28.25	117.514	116.03642	0.008509624
267	28.3	112.716	116.004	0.008871855
268	28.35	117.762	115.97232	0.008491704
269	28.4	118.537	115.94138	0.008436184
270	28.45	118.161	115.91115	0.008463029
271	28.5	117.217	115.88164	0.008531186
272	28.55	115.71	115.85283	0.008642295
273	28.6	123.987	115.82472	0.008065362
274	28.65	119.202	115.79732	0.008389121
275	28.7	120.631	115.7706	0.008289743
276	28.75	118.942	115.74459	0.008407459
277	28.8	115.428	115.71926	0.008663409
278	28.85	119.777	115.69464	0.008348848
279	28.9	117.666	115.67071	0.008498632
280	28.95	114.55	115.64749	0.008729812
281	29	120.397	115.62497	0.008305855
282	29.05	122.452	115.60317	0.008166465
283	29.1	115.846	115.5821	0.00863215
284	29.15	115.299	115.56176	0.008673102
285	29.2	117.816	115.54217	0.008487812
286	29.25	123.094	115.52334	0.008123873
287	29.3	117.442	115.50529	0.008514841
288	29.35	120.831	115.48803	0.008276022
289	29.4	114.141	115.47159	0.008761094
290	29.45	121.03	115.45597	0.008262414
291	29.5	117.681	115.44121	0.008497548
292	29.55	116.03	115.42734	0.008618461
293	29.6	118.109	115.41437	0.008466755
294	29.65	115.574	115.40235	0.008652465
295	29.7	112.186	115.3913	0.008913768
296	29.75	114.396	115.38126	0.008741564
297	29.8	116.652	115.37227	0.008572506
298	29.85	121.553	115.36437	0.008226864
299	29.9	120.824	115.35762	0.008276501
300	29.95	113.31	115.35206	0.008825346
301	30	119.143	115.34775	0.008393275
302	30.05	121.948	115.34474	0.008200216
303	30.1	119.103	115.34311	0.008396094
304	30.15	116.776	115.34293	0.008563403
305	30.2	117.187	115.34427	0.00853337
306	30.25	118.389	115.34722	0.008446731
307	30.3	119.85	115.35188	0.008343763
308	30.35	117.542	115.35834	0.008507597
309	30.4	118.682	115.36672	0.008425878
310	30.45	117.207	115.37714	0.008531914
311	30.5	120.135	115.38973	0.008323969
312	30.55	116.244	115.40464	0.008602595
313	30.6	118.31	115.42202	0.008452371
314	30.65	117.497	115.44206	0.008510856
315	30.7	119.335	115.46495	0.008379771
316	30.75	115.415	115.4909	0.008664385
317	30.8	116.495	115.52015	0.008584059
318	30.85	114.937	115.55297	0.008700418
319	30.9	116.707	115.58965	0.008568466
320	30.95	114.007	115.6305	0.008771391
321	31	117.532	115.6759	0.008508321
322	31.05	116.513	115.72625	0.008582733
323	31.1	119.493	115.78199	0.008368691
324	31.15	123.431	115.84365	0.008101692
325	31.2	118.996	115.91179	0.008403644
326	31.25	112.677	115.98706	0.008874926
327	31.3	115.011	116.0702	0.00869482
328	31.35	115.145	116.16204	0.008684702
329	31.4	117.296	116.26353	0.00852544
330	31.45	118.14	116.37576	0.008464534
331	31.5	114.672	116.49999	0.008720525
332	31.55	114.008	116.63766	0.008771314
333	31.6	115.468	116.79045	0.008660408
334	31.65	116.869	116.96032	0.008556589
335	31.7	115.203	117.14954	0.00868033
336	31.75	118.918	117.36083	0.008409156
337	31.8	115.935	117.59735	0.008625523
338	31.85	119.254	117.86292	0.008385463
339	31.9	124.552	118.16208	0.008028775
340	31.95	125.315	118.50034	0.007979891
341	32	121.237	118.88441	0.008248307
342	32.05	127.595	119.32253	0.007837298
343	32.1	126.106	119.82493	0.007929837
344	32.15	121.208	120.40457	0.008250281
345	32.2	119.818	121.07824	0.008345991
346	32.25	127.158	121.86884	0.007864232
347	32.3	126.963	122.80996	0.00787631
348	32.35	127.104	123.95555	0.007867573
349	32.4	125.318	125.3983	0.0079797
350	32.45	133.32	127.30117	0.00750075
351	32.5	140.195	129.94276	0.007132922
352	32.55	134.862	133.7712	0.007414987
353	32.6	139.843	139.45292	0.007150876
354	32.65	145.607	147.90017	0.006867802
355	32.7	150.287	160.26553	0.006653935
356	32.75	161.239	177.90662	0.006201973
357	32.8	177.764	202.3659	0.005625436
358	32.85	204.667	235.41381	0.004885986
359	32.9	235.429	278.99739	0.004247565
360	32.95	284.579	334.70051	0.003513963
361	33	349.899	402.42877	0.002857968
362	33.05	429.352	478.53276	0.002329091
363	33.1	500.479	554.22885	0.001998086
364	33.15	598.017	615.50852	0.001672193
365	33.2	630.893	645.79778	0.001585055
366	33.25	621.977	633.60137	0.001607776
367	33.3	572.039	583.8969	0.001748133
368	33.35	508.328	517.99128	0.001967234
369	33.4	456.789	458.31681	0.002189195
370	33.45	423.902	416.72052	0.002359036
371	33.5	405.293	393.54682	0.002467351
372	33.55	400.696	380.60783	0.002495658
373	33.6	379.358	365.8342	0.002636032
374	33.65	351.609	339.63363	0.002844068
375	33.7	301.788	301.18105	0.003313584
376	33.75	254.226	257.74447	0.003933508
377	33.8	205.318	217.47335	0.004870494
378	33.85	183.762	185.12577	0.005441821
379	33.9	164.705	161.9458	0.006071461
380	33.95	143.475	146.80584	0.006969855
381	34	135.159	137.53536	0.007398693
382	34.05	132.842	131.98207	0.00752774
383	34.1	128.298	128.54579	0.007794354
384	34.15	123.254	126.24691	0.008113327
385	34.2	113.867	124.56469	0.008782176
386	34.25	118.366	123.24512	0.008448372
387	34.3	110.825	122.1654	0.009023235
388	34.35	110.68	121.26093	0.009035056
389	34.4	112.795	120.49251	0.008865641
390	34.45	112.423	119.83314	0.008894977
391	34.5	119.167	119.26278	0.008391585
392	34.55	123.415	118.76597	0.008102743
393	34.6	116.574	118.33057	0.008578242
394	34.65	122.455	117.9469	0.008166265
395	34.7	116.84	117.60716	0.008558713
396	34.75	113.074	117.30502	0.008843766
397	34.8	114.453	117.03529	0.008737211
398	34.85	111.813	116.79367	0.008943504
399	34.9	116.293	116.5766	0.00859897
400	34.95	118.472	116.38108	0.008440813
401	35	119.797	116.20459	0.008347454
402	35.05	121.593	116.04499	0.008224158
403	35.1	117.854	115.90048	0.008485075
404	35.15	119.868	115.76948	0.00834251
405	35.2	112.803	115.65067	0.008865012
406	35.25	117.443	115.54291	0.008514769
407	35.3	117.293	115.44518	0.008525658
408	35.35	110.936	115.35665	0.009014206
409	35.4	116.828	115.27655	0.008559592
410	35.45	114.239	115.20424	0.008753578
411	35.5	114.432	115.13915	0.008738814
412	35.55	113.781	115.0808	0.008788814
413	35.6	120.301	115.02876	0.008312483
414	35.65	120.202	114.98265	0.008319329
415	35.7	113.528	114.94216	0.0088084
416	35.75	113.932	114.907	0.008777165
417	35.8	120.158	114.87695	0.008322376
418	35.85	117.439	114.85181	0.008515059
419	35.9	116.234	114.83139	0.008603335
420	35.95	116.454	114.81558	0.008587082
421	36	117.086	114.80425	0.008540731
422	36.05	116.915	114.79732	0.008553222
423	36.1	118.326	114.79474	0.008451228
424	36.15	114.253	114.79646	0.008752505
425	36.2	113.417	114.80247	0.00881702
426	36.25	116.9	114.81278	0.00855432
427	36.3	117.606	114.82741	0.008502968
428	36.35	115.287	114.84642	0.008674005
429	36.4	117.784	114.86988	0.008490118
430	36.45	116.869	114.89788	0.008556589
431	36.5	119.971	114.93053	0.008335348
432	36.55	114.48	114.96798	0.00873515
433	36.6	115.479	115.01039	0.008659583
434	36.65	119.075	115.05794	0.008398068
435	36.7	121.249	115.11085	0.008247491
436	36.75	116.898	115.16938	0.008554466
437	36.8	118.973	115.23379	0.008405268
438	36.85	116.601	115.30441	0.008576256
439	36.9	115.267	115.38158	0.00867551
440	36.95	122.293	115.4657	0.008177083
441	37	115.772	115.55721	0.008637667
442	37.05	118.802	115.6566	0.008417367
443	37.1	117.686	115.76442	0.008497187
444	37.15	117.754	115.88129	0.008492281
445	37.2	120.514	116.0079	0.008297791
446	37.25	124.144	116.14502	0.008055162
447	37.3	120.306	116.29351	0.008312137
448	37.35	123.778	116.45436	0.00807898
449	37.4	121.481	116.62865	0.00823174
450	37.45	123.182	116.81762	0.008118069
451	37.5	120.978	117.02268	0.008265966
452	37.55	123.186	117.24541	0.008117806
453	37.6	125.405	117.48762	0.007974164
454	37.65	124.642	117.75137	0.008022978
455	37.7	126.503	118.03903	0.007904951
456	37.75	123.464	118.35331	0.008099527
457	37.8	123.169	118.69734	0.008118926
458	37.85	123.775	119.07478	0.008079176
459	37.9	117.478	119.48984	0.008512232
460	37.95	122.34	119.94749	0.008173941
461	38	118.92	120.45356	0.008409014
462	38.05	123.131	121.01501	0.008121432
463	38.1	127.662	121.64055	0.007833185
464	38.15	128.235	122.3404	0.007798183
465	38.2	131.512	123.12694	0.007603869
466	38.25	131.036	124.01632	0.007631491
467	38.3	132.567	125.03471	0.007543355
468	38.35	131.259	126.17402	0.007618525
469	38.4	133.657	127.47966	0.007481838
470	38.45	131.393	128.98621	0.007610756
471	38.5	127.362	130.73824	0.007851635
472	38.55	131.155	132.79514	0.007624566
473	38.6	133.687	135.24049	0.007480159
474	38.65	134.977	138.20236	0.00740867
475	38.7	136.457	141.89621	0.007328316
476	38.75	135.698	146.70913	0.007369305
477	38.8	149.712	153.34649	0.006679491
478	38.85	160.867	163.0527	0.006216315
479	38.9	175.658	177.89478	0.00569288
480	38.95	197.777	201.05923	0.0050562
481	39	232.176	237.19709	0.004307077
482	39.05	282.99	292.32367	0.003533694
483	39.1	346.137	373.49475	0.002889029
484	39.15	444.085	487.46834	0.002251821
485	39.2	590.095	638.16942	0.001694642
486	39.25	773.19	822.4102	0.001293343
487	39.3	972.023	1024.90071	0.001028782
488	39.35	1171.407	1214.6021	0.000853674
489	39.4	1327.239	1346.27533	0.000753444
490	39.45	1374.051	1371.61056	0.000727775
491	39.5	1262.22	1267.27434	0.000792255
492	39.55	1046.892	1063.67302	0.000955208
493	39.6	797.828	826.05592	0.001253403
494	39.65	574.208	609.11549	0.001741529
495	39.7	443.692	440.22967	0.002253816
496	39.75	344.349	324.22383	0.002904031
497	39.8	281.411	252.40674	0.003553521
498	39.85	230.846	211.35392	0.004331892
499	39.9	192.983	188.91534	0.005181804
500	39.95	175.079	176.69286	0.005711707
501	40	160.218	169.91771	0.006241496
502	40.05	162.739	166.31947	0.006144809
503	40.1	162.982	165.08042	0.006135647
504	40.15	159.246	166.23939	0.006279593
505	40.2	170.076	170.49002	0.005879724
506	40.25	182.751	179.20574	0.005471926
507	40.3	198.262	194.54228	0.005043831
508	40.35	206.978	219.47505	0.004831431
509	40.4	231.062	257.56726	0.004327843
510	40.45	279.401	312.22839	0.003579085
511	40.5	334.964	385.29897	0.002985395
512	40.55	423.284	474.90681	0.00236248
513	40.6	526.518	573.02264	0.00189927
514	40.65	628.056	663.99558	0.001592215
515	40.7	717.485	725.70212	0.001393757
516	40.75	742.063	735.78335	0.001347594
517	40.8	707.999	686.30464	0.001412431
518	40.85	605.815	596.24435	0.001650669
519	40.9	494.552	499.55806	0.002022032
520	40.95	435.93	424.43339	0.002293946
521	41	403.764	387.31127	0.002476694
522	41.05	401.089	395.48148	0.002493212
523	41.1	457.909	450.43358	0.00218384
524	41.15	544.368	549.72429	0.001836993
525	41.2	674.889	686.16006	0.001481725
526	41.25	850.831	844.47016	0.001175322
527	41.3	1014.628	997.97465	0.000985583
528	41.35	1146.901	1108.78021	0.000871915
529	41.4	1185.24	1135.69363	0.000843711
530	41.45	1097.681	1056.46754	0.000911011
531	41.5	911.269	893.23202	0.001097371
532	41.55	669.082	699.34073	0.001494585
533	41.6	495.245	520.86193	0.002019203
534	41.65	371.459	381.1664	0.002692087
535	41.7	286.526	284.65859	0.003490085
536	41.75	220.962	224.37781	0.004525665
537	41.8	184.667	189.28286	0.005415153
538	41.85	167.178	169.33025	0.005981648
539	41.9	146.733	157.55656	0.0068151
540	41.95	136.446	149.96463	0.007328907
541	42	133.113	144.55265	0.007512414
542	42.05	131.293	140.39178	0.007616552
543	42.1	126.196	137.04666	0.007924181
544	42.15	123.397	134.29003	0.008103925
545	42.2	117.183	131.98347	0.008533661
546	42.25	114.096	130.03175	0.008764549
547	42.3	116.137	128.36486	0.00861052
548	42.35	114.293	126.92957	0.008749442
549	42.4	119.011	125.68469	0.008402585
550	42.45	122.043	124.5979	0.008193833
551	42.5	127.97	123.64354	0.007814331
552	42.55	121.694	122.80107	0.008217332
553	42.6	116.965	122.05382	0.008549566
554	42.65	115.714	121.38821	0.008641997
555	42.7	116.582	120.79305	0.008577653
556	42.75	118.967	120.25906	0.008405692
557	42.8	117.428	119.77849	0.008515857
558	42.85	118.335	119.34486	0.008450585
559	42.9	114.518	118.95264	0.008732252
560	42.95	118.612	118.59717	0.00843085
561	43	121.001	118.27446	0.008264395
562	43.05	120.771	117.98108	0.008280133
563	43.1	123.552	117.71409	0.008093758
564	43.15	117.385	117.47093	0.008518976
565	43.2	116.089	117.24939	0.008614081
566	43.25	117.564	117.04753	0.008506005
567	43.3	116.419	116.86368	0.008589663
568	43.35	118.182	116.69635	0.008461525
569	43.4	117.144	116.54426	0.008536502
570	43.45	117.157	116.40626	0.008535555
571	43.5	120.355	116.28136	0.008308753
572	43.55	123.747	116.16867	0.008081004
573	43.6	123.389	116.06741	0.00810445
574	43.65	128.897	115.97691	0.007758132
575	43.7	129.747	115.89655	0.007707307
576	43.75	124.989	115.82581	0.008000704
577	43.8	122.512	115.76423	0.008162466
578	43.85	118.914	115.71139	0.008409439
579	43.9	122.204	115.66695	0.008183038
580	43.95	123.97	115.63061	0.008066468
581	44	128.987	115.6021	0.007752719
582	44.05	118.486	115.58122	0.008439816
583	44.1	117.142	115.56777	0.008536648
584	44.15	117.508	115.56163	0.008510059
585	44.2	121.929	115.56267	0.008201494
586	44.25	118.094	115.57084	0.008467831
587	44.3	118.555	115.58607	0.008434904
588	44.35	121.079	115.60837	0.008259071
589	44.4	126.568	115.6381	0.007900891
590	44.45	125.449	115.67587	0.007971367
591	44.5	128.933	115.7226	0.007755966
592	44.55	122.493	115.78404	0.008163732
593	44.6	130.639	115.8466	0.007654682
594	44.65	136.324	115.91277	0.007335466
595	44.7	127.702	115.98674	0.007830731
596	44.75	125.373	116.06874	0.007976199
597	44.8	129.291	116.15905	0.00773449
598	44.85	125.218	116.25796	0.007986072
599	44.9	125.558	116.36582	0.007964447
600	44.95	125.177	116.48302	0.007988688
601	45	127.094	116.60999	0.007868192
602	45.05	124.809	116.7472	0.008012243
603	45.1	124.854	116.89518	0.008009355
604	45.15	122.574	117.05464	0.008158337
605	45.2	121.524	117.22712	0.008228827
606	45.25	125.036	117.41425	0.007997697
607	45.3	119.937	117.61918	0.008337711
608	45.35	121.034	117.85181	0.008262141
609	45.4	119.352	118.07961	0.008378578
610	45.45	123.929	118.3248	0.008069136
611	45.5	121.169	118.58953	0.008252936
612	45.55	123.565	118.8771	0.008092907
613	45.6	126.115	119.20258	0.007929271
614	45.65	125.223	119.52657	0.007985753
615	45.7	124.49	119.8746	0.008032774
616	45.75	125.41	120.2487	0.007973846
617	45.8	123.311	120.65117	0.008109577
618	45.85	123.435	121.08458	0.00810143
619	45.9	123.813	121.55182	0.008076696
620	45.95	119.97	122.05614	0.008335417
621	46	126.252	122.6012	0.007920667
622	46.05	118.189	123.19115	0.008461024
623	46.1	125.773	123.8307	0.007950832
624	46.15	125.687	124.52522	0.007956272
625	46.2	118.536	125.28083	0.008436256
626	46.25	120.455	126.10455	0.008301855
627	46.3	126.96	127.00444	0.007876497
628	46.35	126.364	127.98984	0.007913646
629	46.4	126.309	129.07155	0.007917092
630	46.45	129.313	130.26218	0.007733175
631	46.5	137.162	131.57646	0.007290649
632	46.55	143.062	133.03172	0.006989976
633	46.6	144.175	134.64847	0.006936015
634	46.65	155.28	136.45107	0.006439979
635	46.7	161.399	138.46869	0.006195825
636	46.75	162.353	140.73647	0.006159418
637	46.8	176.17	143.29698	0.005676335
638	46.85	181.544	146.20229	0.005508307
639	46.9	174.942	149.51655	0.00571618
640	46.95	184.906	153.3195	0.005408153
641	47	184.026	157.71123	0.005434015
642	47.05	182.237	162.81878	0.00548736
643	47.1	181.205	168.8056	0.005518612
644	47.15	183.734	175.88602	0.005442651
645	47.2	190.023	184.35056	0.005262521
646	47.25	191.722	194.61701	0.005215886
647	47.3	197.518	207.3438	0.00506283
648	47.35	202.369	223.68435	0.004941468
649	47.4	235.52	245.822	0.004245924
650	47.45	280.213	277.98101	0.003568714
651	47.5	349.081	328.09288	0.002864665
652	47.55	445.757	410.09485	0.002243375
653	47.6	605.076	546.28312	0.001652685
654	47.65	842.362	768.03789	0.001187138
655	47.7	1206.208	1111.64335	0.000829044
656	47.75	1711.826	1605.30808	0.000584172
657	47.8	2372.906	2247.30768	0.000421424
658	47.85	3124.394	2982.80357	0.000320062
659	47.9	3787.403	3690.59467	0.000264033
660	47.95	4229.833	4190.65732	0.000236416
661	48	4202.899	4292.72852	0.000237931
662	48.05	3716.124	3917.25728	0.000269098
663	48.1	2886.896	3199.00478	0.000346393
664	48.15	2117.446	2383.83676	0.000472267
665	48.2	1448.58	1658.85637	0.000690331
666	48.25	1025.138	1108.38135	0.000975478
667	48.3	713.669	738.91383	0.00140121
668	48.35	522.784	514.10797	0.001912836
669	48.4	394.825	385.79943	0.002532768
670	48.45	317.967	313.48378	0.00314498
671	48.5	269.081	270.61611	0.003716353
672	48.55	227.266	242.6519	0.00440013
673	48.6	195.413	222.5481	0.005117367
674	48.65	173.343	207.07744	0.005768909
675	48.7	151.072	194.69935	0.00661936
676	48.75	141.178	184.57736	0.007083257
677	48.8	139.987	176.18595	0.00714352
678	48.85	129.69	169.15047	0.007710695
679	48.9	123.544	163.19651	0.008094282
680	48.95	124.757	158.11582	0.008015582
681	49	127.148	153.74774	0.00786485
682	49.05	125.907	149.96676	0.00794237
683	49.1	125.53	146.67382	0.007966223
684	49.15	122.113	143.79081	0.008189136
685	49.2	122.024	141.25542	0.008195109
686	49.25	129.748	139.02511	0.007707248
687	49.3	127.492	137.03293	0.007843629
688	49.35	121.141	135.25395	0.008254844
689	49.4	121.237	133.66178	0.008248307
690	49.45	125.109	132.23213	0.00799303
691	49.5	125.91	130.94458	0.007942181
692	49.55	124.225	129.78183	0.008049909
693	49.6	123.695	128.72922	0.008084401
694	49.65	117.363	127.77421	0.008520573
695	49.7	117.303	126.90606	0.008524931
696	49.75	120.054	126.11549	0.008329585
697	49.8	119.364	125.39452	0.008377735
698	49.85	119.083	124.73621	0.008397504
699	49.9	114.725	124.13452	0.008716496
700	49.95	123.055	123.58419	0.008126448
701	50	120.78	123.0806	0.008279516
702	50.05	115.177	122.61973	0.008682289
703	50.1	112.218	122.19804	0.008911226
704	50.15	121.181	121.81242	0.008252119
705	50.2	123.231	121.46013	0.008114841
706	50.25	114.994	121.13877	0.008696106
707	50.3	114.011	120.84623	0.008771083
708	50.35	119.639	120.58065	0.008358478
709	50.4	119.144	120.34043	0.008393205
710	50.45	121.455	120.12414	0.008233502
711	50.5	120.012	119.93058	0.0083325
712	50.55	117.606	119.7587	0.008502968
713	50.6	116.893	119.60763	0.008554832
714	50.65	121.975	119.47663	0.008198401
715	50.7	120.228	119.36513	0.00831753
716	50.75	124.467	119.27267	0.008034258
717	50.8	120.47	119.19895	0.008300822
718	50.85	119.339	119.1438	0.00837949
719	50.9	124.279	119.10716	0.008046412
720	50.95	119.548	119.08914	0.008364841
721	51	114.855	119.08998	0.00870663
722	51.05	115.778	119.11006	0.00863722
723	51.1	117.074	119.14995	0.008541606
724	51.15	118.532	119.21036	0.00843654
725	51.2	120.141	119.29222	0.008323553
726	51.25	117.561	119.39669	0.008506222
727	51.3	121.779	119.52515	0.008211596
728	51.35	117.281	119.6793	0.00852653
729	51.4	116.634	119.86113	0.008573829
730	51.45	119.043	120.07305	0.008400326
731	51.5	118.191	120.31793	0.008460881
732	51.55	120.011	120.59918	0.00833257
733	51.6	122.684	120.92088	0.008151022
734	51.65	121.395	121.28791	0.008237572
735	51.7	127.199	121.70615	0.007861697
736	51.75	122.382	122.18271	0.008171136
737	51.8	122.686	122.72622	0.008150889
738	51.85	122.537	123.34731	0.0081608
739	51.9	127.168	124.05905	0.007863613
740	51.95	125.264	124.87778	0.00798314
741	52	127.334	125.82408	0.007853362
742	52.05	124.221	126.92418	0.008050169
743	52.1	124.036	128.21209	0.008062175
744	52.15	121.784	129.73299	0.008211259
745	52.2	128.273	131.54969	0.007795873
746	52.25	132.258	133.75668	0.007560979
747	52.3	133.017	136.51297	0.007517836
748	52.35	140.725	140.11676	0.007106058
749	52.4	141.539	145.16038	0.007065191
750	52.45	148.389	152.81075	0.006739044
751	52.5	172.69	165.22704	0.005790723
752	52.55	193.826	186.00904	0.005159267
753	52.6	230.005	220.33473	0.004347732
754	52.65	283.196	274.16107	0.003531123
755	52.7	362.218	351.80186	0.002760768
756	52.75	460.346	451.91181	0.002172279
757	52.8	582.404	563.50718	0.001717021
758	52.85	669.757	664.45961	0.001493079
759	52.9	747.128	724.53503	0.001338459
760	52.95	717.053	717.51286	0.001394597
761	53	628.005	643.30677	0.001592344
762	53.05	498.078	532.71959	0.002007718
763	53.1	384.628	421.2878	0.002599915
764	53.15	295.598	330.51237	0.003382973
765	53.2	236.562	267.64759	0.004227222
766	53.25	218.499	230.82724	0.00457668
767	53.3	199.621	214.52515	0.005009493
768	53.35	208.038	214.06808	0.004806814
769	53.4	230.008	228.44713	0.004347675
770	53.45	268.588	261.54864	0.003723175
771	53.5	338.756	322.07182	0.002951977
772	53.55	444.373	421.61993	0.002250362
773	53.6	590.876	569.78239	0.001692402
774	53.65	798.714	765.88462	0.001252013
775	53.7	1025.708	990.15593	0.000974936
776	53.75	1254.321	1199.55301	0.000797244
777	53.8	1387.38	1332.87465	0.000720783
778	53.85	1362.419	1333.95137	0.000733989
779	53.9	1199.064	1197.41666	0.000833984
780	53.95	966.183	984.76613	0.001035001
781	54	757.081	773.62037	0.001320863
782	54.05	627.802	615.82732	0.001592859
783	54.1	582.279	534.02016	0.00171739
784	54.15	603.621	528.59864	0.001656669
785	54.2	663.915	583.69155	0.001506217
786	54.25	764.277	671.28214	0.001308426
787	54.3	819.575	754.53752	0.001220145
788	54.35	848.62	793.40451	0.001178384
789	54.4	778.181	759.97284	0.001285048
790	54.45	659.606	660.91033	0.001516057
791	54.5	510.413	532.71993	0.001959198
792	54.55	375.37	410.51962	0.002664038
793	54.6	289.838	313.08469	0.003450203
794	54.65	233.732	244.90859	0.004278404
795	54.7	189.472	201.81523	0.005277825
796	54.75	161.96	176.33438	0.006174364
797	54.8	157.706	161.49903	0.006340913
798	54.85	140.572	152.44976	0.007113792
799	54.9	132.508	146.40056	0.007546714
800	54.95	125.891	141.95832	0.00794338
801	55	128.968	138.47243	0.007753861
802	55.05	120.219	135.63246	0.008318153
803	55.1	117.231	133.28064	0.008530167
804	55.15	124.042	131.36012	0.008061786
805	55.2	121.813	129.67451	0.008209304
806	55.25	118.506	128.20927	0.008438391
807	55.3	114.232	126.9391	0.008754114
808	55.35	125.757	125.83048	0.007951844
809	55.4	120.611	124.85696	0.008291118
810	55.45	124.666	123.99743	0.008021433
811	55.5	114.243	123.23477	0.008753272
812	55.55	117.842	122.5549	0.008485939
813	55.6	118.161	121.94599	0.008463029
814	55.65	123.639	121.39717	0.008088063
815	55.7	123.143	120.89433	0.00812064
816	55.75	121.158	120.4548	0.008253685
817	55.8	122.088	120.05798	0.008190813
818	55.85	115.896	119.69911	0.008628425
819	55.9	115.297	119.37415	0.008673253
820	55.95	114.885	119.07942	0.008704357
821	56	119.518	118.81689	0.008366941
822	56.05	121.481	118.59817	0.00823174
823	56.1	115.135	118.4275	0.008685456
824	56.15	118.537	118.22573	0.008436184
825	56.2	119.925	118.04094	0.008338545
826	56.25	120.518	117.86921	0.008297516
827	56.3	117.469	117.69857	0.008512884
828	56.35	115.311	117.56874	0.0086722
829	56.4	122.79	117.45311	0.008143986
830	56.45	122.836	117.35082	0.008140936
831	56.5	117.475	117.26116	0.008512449
832	56.55	111.278	117.18348	0.008986502
833	56.6	116	117.11728	0.00862069
834	56.65	110.231	117.06209	0.009071858
835	56.7	110.441	117.01755	0.009054608
836	56.75	110.128	116.98338	0.009080343
837	56.8	111.05	116.95936	0.009004953
838	56.85	112.81	116.94533	0.008864462
839	56.9	117.634	116.94121	0.008500944
840	56.95	120.663	116.947	0.008287545
841	57	122.929	116.96273	0.008134777
842	57.05	118.942	116.98853	0.008407459
843	57.1	114.102	117.0246	0.008764088
844	57.15	115.889	117.07119	0.008628947
845	57.2	116.675	117.12866	0.008570816
846	57.25	119.797	117.19744	0.008347454
847	57.3	114.577	117.27807	0.008727755
848	57.35	116.95	117.37118	0.008550663
849	57.4	115.678	117.47754	0.008644686
850	57.45	118.238	117.59805	0.008457518
851	57.5	117.346	117.73375	0.008521807
852	57.55	117.114	117.88589	0.008538689
853	57.6	113.72	118.0559	0.008793528
854	57.65	120.123	118.24549	0.0083248
855	57.7	115.837	118.45663	0.00863282
856	57.75	117.001	118.69166	0.008546935
857	57.8	120.436	118.95333	0.008303165
858	57.85	123.094	119.24491	0.008123873
859	57.9	120.181	119.57028	0.008320783
860	57.95	125.668	119.9341	0.007957475
861	58	119.947	120.34198	0.008337016
862	58.05	123.16	120.80073	0.008119519
863	58.1	119.354	121.31869	0.008378437
864	58.15	117.829	121.90615	0.008486875
865	58.2	120.377	122.57596	0.008307235
866	58.25	126.354	123.34433	0.007914273
867	58.3	127.466	124.23197	0.007845229
868	58.35	121.268	125.2658	0.008246199
869	58.4	122.679	126.48168	0.008151354
870	58.45	122.71	127.92977	0.008149295
871	58.5	122.119	129.68644	0.008188734
872	58.55	128.099	131.88368	0.007806462
873	58.6	126.42	134.78156	0.007910141
874	58.65	135.991	138.92099	0.007353428
875	58.7	145.353	145.32156	0.006879803
876	58.75	156.703	155.95425	0.006381499
877	58.8	172.761	173.93801	0.005788343
878	58.85	200.666	203.35833	0.004983405
879	58.9	244.241	248.04427	0.004094317
880	58.95	313.276	309.04751	0.003192073
881	59	372.361	381.39189	0.002685566
882	59.05	448.146	451.82314	0.002231416
883	59.1	509.439	499.82512	0.001962944
884	59.15	499.21	505.30409	0.002003165
885	59.2	458.805	464.78036	0.002179575
886	59.25	389.171	397.39699	0.002569565
887	59.3	317.34	327.57989	0.003151194
888	59.35	261.664	270.85964	0.003821695
889	59.4	232.366	233.39569	0.004303556
890	59.45	219.191	215.74299	0.004562231
891	59.5	220.401	216.94244	0.004537184
892	59.55	243.169	237.78923	0.004112366
893	59.6	283.905	282.111	0.003522305
894	59.65	351.523	355.346	0.002844764
895	59.7	458.404	460.59372	0.002181482
896	59.75	613.364	593.40255	0.001630353
897	59.8	758.912	737.79255	0.001317676
898	59.85	899.17	867.07321	0.001112137
899	59.9	990.917	953.45218	0.001009166
900	59.95	1030.253	990.27026	0.000970635
901	60	1038.896	999.51822	0.00096256
902	60.05	1011.443	999.81538	0.000988686
903	60.1	1012.683	981.59407	0.000987476
904	60.15	968.354	917.3879	0.00103268
905	60.2	839.625	795.88613	0.001191008
906	60.25	672.379	642.18976	0.001487256
907	60.3	507.769	492.89848	0.001969399
908	60.35	366.051	370.80142	0.00273186
909	60.4	276.055	282.92504	0.003622467
910	60.45	231.301	225.91547	0.004323371
911	60.5	194.953	191.62704	0.005129441
912	60.55	169.245	171.64645	0.005908594
913	60.6	147.818	159.68393	0.006765076
914	60.65	149.317	151.93484	0.006697161
915	60.7	143.148	146.42241	0.006985777
916	60.75	139.832	142.20547	0.007151439
917	60.8	134.403	138.83531	0.00744031
918	60.85	129.495	136.07843	0.007722306
919	60.9	128.31	133.8191	0.007793625
920	60.95	122.529	131.90209	0.008161333
921	61	121.85	130.26707	0.008206812
922	61.05	117.374	128.8698	0.008519774
923	61.1	123.136	127.66761	0.008121102
924	61.15	122.724	126.6271	0.008148365
925	61.2	127.289	125.72189	0.007856138
926	61.25	122.144	124.93086	0.008187058
927	61.3	125.932	124.237	0.007940793
928	61.35	125.761	123.62647	0.007951591
929	61.4	118.835	123.08793	0.008415029
930	61.45	122.373	122.61203	0.008171737
931	61.5	121.867	122.19102	0.008205667
932	61.55	121.782	121.81844	0.008211394
933	61.6	120.139	121.48889	0.008323692
934	61.65	120.665	121.19785	0.008287407
935	61.7	117.756	120.94152	0.008492136
936	61.75	118.269	120.7167	0.008455301
937	61.8	123.51	120.52074	0.00809651
938	61.85	121.51	120.35143	0.008229775
939	61.9	120.64	120.20692	0.008289125
940	61.95	122.296	120.08577	0.008176882
941	62	125.142	119.9868	0.007990922
942	62.05	119.104	119.90916	0.008396024
943	62.1	121.337	119.85225	0.008241509
944	62.15	125.722	119.81575	0.007954057
945	62.2	118.906	119.79962	0.008410005
946	62.25	123.203	119.80407	0.008116685
947	62.3	123.512	119.82962	0.008096379
948	62.35	123.454	119.8771	0.008100183
949	62.4	131.66	119.9477	0.007595321
950	62.45	122.594	120.04301	0.008157006
951	62.5	120.929	120.16424	0.008269315
952	62.55	122.715	120.3116	0.008148963
953	62.6	130.191	120.48714	0.007681022
954	62.65	127.635	120.69279	0.007834842
955	62.7	129.595	120.92873	0.007716347
956	62.75	132.878	121.18181	0.0075257
957	62.8	133.648	121.4579	0.007482342
958	62.85	131.133	121.8941	0.007625846
959	62.9	135.125	122.41013	0.007400555
960	62.95	134.876	123.02276	0.007414218
961	63	130.975	123.75373	0.007635045
962	63.05	131.535	124.63166	0.007602539
963	63.1	134.084	125.69501	0.007458011
964	63.15	137.428	126.99738	0.007276538
965	63.2	127.149	128.61915	0.007864789
966	63.25	132.864	130.69617	0.007526493
967	63.3	141.601	133.49116	0.007062097
968	63.35	145.253	137.55571	0.006884539
969	63.4	152.239	144.04105	0.006568619
970	63.45	166.832	155.15985	0.005994054
971	63.5	186.079	174.60761	0.005374062
972	63.55	218.8	207.43663	0.004570384
973	63.6	265.087	258.67692	0.003772346
974	63.65	328.94	330.30418	0.003040068
975	63.7	393.298	417.06073	0.002542601
976	63.75	488.563	502.87692	0.002046819
977	63.8	531.342	561.26419	0.001882027
978	63.85	528.118	565.85202	0.001893516
979	63.9	488.564	512.61666	0.002046815
980	63.95	414.848	426.3846	0.002410521
981	64	330.032	337.12136	0.003030009
982	64.05	266.111	262.85245	0.00375783
983	64.1	208.697	209.57413	0.004791636
984	64.15	180.798	175.55009	0.005531035
985	64.2	161.122	155.60018	0.006206477
986	64.25	148.655	144.36333	0.006726985
987	64.3	144.583	137.89759	0.006916442
988	64.35	137.442	133.87089	0.007275796
989	64.4	135.703	131.09996	0.007369034
990	64.45	137.613	129.03518	0.007266755
991	64.5	127.919	127.42084	0.007817447
992	64.55	125.645	126.12501	0.007958932
993	64.6	123.388	125.06846	0.008104516
994	64.65	121.526	124.19745	0.008228692
995	64.7	122.93	123.47306	0.008134711
996	64.75	124.639	122.86616	0.008023171
997	64.8	127.552	122.35552	0.00783994
998	64.85	124.415	121.94683	0.008037616
999	64.9	127.049	121.57814	0.007870979
1000	64.95	126.043	121.26347	0.0079338
1001	65	119.61	120.99434	0.008360505
1002	65.05	119.834	120.7639	0.008344877
1003	65.1	125.329	120.56659	0.007978999
1004	65.15	126.267	120.39786	0.007919726
1005	65.2	126.172	120.25394	0.007925689
1006	65.25	124.759	120.13173	0.008015454
1007	65.3	124.483	120.02862	0.008033225
1008	65.35	123.319	119.94244	0.008109051
1009	65.4	126.873	119.87135	0.007881898
1010	65.45	123.747	119.81544	0.008081004
1011	65.5	122.779	119.777	0.008144715
1012	65.55	118.141	119.74281	0.008464462
1013	65.6	121.273	119.71875	0.008245859
1014	65.65	122.927	119.70401	0.008134909
1015	65.7	125.949	119.69789	0.007939722
1016	65.75	128.87	119.69978	0.007759758
1017	65.8	128.183	119.70918	0.007801347
1018	65.85	126.757	119.72565	0.007889111
1019	65.9	125.055	119.74882	0.007996482
1020	65.95	126.437	119.77839	0.007909077
1021	66	128.506	119.81409	0.007781738
1022	66.05	123.887	119.85571	0.008071872
1023	66.1	126.658	119.90308	0.007895277
1024	66.15	122.126	119.95608	0.008188265
1025	66.2	124.941	120.01459	0.008003778
1026	66.25	126.762	120.07857	0.007888799
1027	66.3	123.829	120.14797	0.008075653
1028	66.35	123.866	120.22278	0.00807324
1029	66.4	123.209	120.30304	0.00811629
1030	66.45	126.532	120.38878	0.007903139
1031	66.5	121.101	120.48009	0.00825757
1032	66.55	125.665	120.57706	0.007957665
1033	66.6	129.144	120.67983	0.007743294
1034	66.65	126.874	120.78855	0.007881836
1035	66.7	132.097	120.90341	0.007570195
1036	66.75	121.714	121.02461	0.008215982
1037	66.8	125.501	121.1524	0.007968064
1038	66.85	124.885	121.28705	0.008007367
1039	66.9	126.068	121.42887	0.007932227
1040	66.95	129.221	121.57821	0.00773868
1041	67	129.252	121.73545	0.007736824
1042	67.05	130.143	121.90101	0.007683855
1043	67.1	130.062	122.07537	0.007688641
1044	67.15	123.088	122.25905	0.008124269
1045	67.2	124.194	122.45263	0.008051919
1046	67.25	127.451	122.65675	0.007846153
1047	67.3	132.477	122.87212	0.00754848
1048	67.35	131.425	123.09951	0.007608902
1049	67.4	129.076	123.33965	0.007747374
1050	67.45	125.586	123.59299	0.007962671
1051	67.5	127.224	123.86023	0.007860152
1052	67.55	127.787	124.14185	0.007825522
1053	67.6	128.031	124.43646	0.007810608
1054	67.65	128.724	124.74276	0.007768559
1055	67.7	129.8	125.08506	0.00770416
1056	67.75	131.726	125.44977	0.007591516
1057	67.8	130.9	125.83896	0.007639419
1058	67.85	135.11	126.25498	0.007401377
1059	67.9	125.853	126.70045	0.007945778
1060	67.95	127.828	127.17838	0.007823012
1061	68	126.854	127.69216	0.007883078
1062	68.05	123.457	128.24566	0.008099986
1063	68.1	123.648	128.84331	0.008087474
1064	68.15	130.822	129.4902	0.007643974
1065	68.2	124.227	130.1922	0.00804978
1066	68.25	127.592	130.95609	0.007837482
1067	68.3	129.999	131.78973	0.007692367
1068	68.35	130.169	132.70136	0.007682321
1069	68.4	135.59	133.7009	0.007375175
1070	68.45	134.414	134.79991	0.007439701
1071	68.5	139.962	136.00963	0.007144796
1072	68.55	138.831	137.33271	0.007203002
1073	68.6	137.194	138.8504	0.007288948
1074	68.65	142.615	140.55268	0.007011885
1075	68.7	148.329	142.47202	0.00674177
1076	68.75	140.453	144.64844	0.007119819
1077	68.8	143.608	147.13578	0.0069634
1078	68.85	151.081	150.0423	0.006618966
1079	68.9	150.126	153.34272	0.006661071
1080	68.95	153.149	157.1924	0.006529589
1081	69	156.469	161.74143	0.006391042
1082	69.05	153.781	167.12125	0.006502754
1083	69.1	149.513	173.61847	0.006688382
1084	69.15	154.191	181.56229	0.006485463
1085	69.2	168.26	191.50565	0.005943183
1086	69.25	174.662	204.46576	0.005725344
1087	69.3	190.386	222.54609	0.005252487
1088	69.35	212.92	250.22796	0.0046966
1089	69.4	270.011	296.49112	0.003703553
1090	69.45	352.144	377.13875	0.002839747
1091	69.5	487.035	515.17079	0.002053241
1092	69.55	705.208	735.77427	0.001418021
1093	69.6	1007.943	1053.53076	0.00099212
1094	69.65	1411.072	1453.26755	0.000708681
1095	69.7	1844.498	1869.78188	0.000542153
1096	69.75	2147.067	2179.41078	0.000465752
1097	69.8	2271.568	2242.82302	0.000440225
1098	69.85	2089.7	2022.47628	0.000478538
1099	69.9	1674.359	1630.84438	0.000597243
1100	69.95	1245.179	1214.68501	0.000803097
1101	70	918.291	864.59316	0.001088979
1102	70.05	665.059	612.71182	0.001503626
1103	70.1	507.965	453.3573	0.00196864
1104	70.15	409.256	363.53748	0.002443458
1105	70.2	358.533	319.07483	0.002789144
1106	70.25	360.394	303.40781	0.002774741
1107	70.3	368.034	310.16495	0.00271714
1108	70.35	409.339	342.89015	0.002442963
1109	70.4	485.885	413.74046	0.0020581
1110	70.45	608.45	540.0976	0.00164352
1111	70.5	795.131	736.73273	0.001257654
1112	70.55	1046.994	1002.95127	0.000955115
1113	70.6	1349.322	1307.2538	0.000741113
1114	70.65	1649.95	1575.39403	0.000606079
1115	70.7	1831.734	1701.29318	0.000545931
1116	70.75	1780.3	1615.17221	0.000561703
1117	70.8	1493.273	1360.08849	0.00066967
1118	70.85	1132.889	1046.40035	0.000882699
1119	70.9	797.438	760.06491	0.001254016
1120	70.95	546.821	540.25998	0.001828752
1121	71	400.582	391.903	0.002496368
1122	71.05	303.208	301.18294	0.003298066
1123	71.1	248.426	248.92014	0.004025344
1124	71.15	222.243	218.91837	0.004499579
1125	71.2	200.265	200.65253	0.004993384
1126	71.25	178.151	188.4151	0.005613216
1127	71.3	159.649	179.45752	0.006263741
1128	71.35	148.633	172.50753	0.006727981
1129	71.4	150.576	166.93839	0.006641165
1130	71.45	147.772	162.39479	0.006767182
1131	71.5	137.65	158.64537	0.007264802
1132	71.55	137.417	155.52595	0.00727712
1133	71.6	133.514	152.91501	0.007489851
1134	71.65	138.813	150.72064	0.007203936
1135	71.7	136.415	148.87239	0.007330572
1136	71.75	132.181	147.31573	0.007565384
1137	71.8	135.623	146.00819	0.007373381
1138	71.85	135.049	144.91656	0.00740472
1139	71.9	143.162	144.01488	0.006985094
1140	71.95	143.193	143.28303	0.006983582
1141	72	139.667	142.70561	0.007159887
1142	72.05	137.638	142.27127	0.007265435
1143	72.1	143.179	141.97212	0.006984264
1144	72.15	139.179	141.80348	0.007184992
1145	72.2	139.365	141.76367	0.007175403
1146	72.25	144.772	141.85406	0.006907413
1147	72.3	136.385	142.07921	0.007332185
1148	72.35	139.082	142.44726	0.007190003
1149	72.4	141.505	142.97052	0.007066888
1150	72.45	137.923	143.66636	0.007250422
1151	72.5	143.056	144.55857	0.00699027
1152	72.55	143.496	145.67924	0.006968835
1153	72.6	148.287	147.07173	0.006743679
1154	72.65	147.488	148.79538	0.006780213
1155	72.7	147.629	150.93479	0.006773737
1156	72.75	143.465	153.62125	0.006970341
1157	72.8	144.534	157.08759	0.006918787
1158	72.85	152.092	161.80263	0.006574968
1159	72.9	165.278	168.75791	0.006050412
1160	72.95	165.254	179.98386	0.006051291
1161	73	192.936	199.00676	0.005183066
1162	73.05	225.231	231.19311	0.004439886
1163	73.1	276.694	282.61587	0.003614101
1164	73.15	354.211	357.25082	0.002823176
1165	73.2	444.861	452.60766	0.002247893
1166	73.25	547.853	554.82868	0.001825307
1167	73.3	637.861	635.61486	0.00156774
1168	73.35	672.706	660.97902	0.001486533
1169	73.4	632.016	620.79247	0.001582238
1170	73.45	551.201	543.49627	0.00181422
1171	73.5	474.543	468.43	0.002107291
1172	73.55	432.408	422.27579	0.002312631
1173	73.6	419.973	416.18442	0.002381105
1174	73.65	458.213	447.47397	0.002182391
1175	73.7	512.717	500.81617	0.001950394
1176	73.75	558.881	549.59981	0.00178929
1177	73.8	581.115	563.85609	0.00172083
1178	73.85	561.612	532.00417	0.001780589
1179	73.9	517.131	472.17232	0.001933746
1180	73.95	444.754	412.25185	0.002248434
1181	74	386.175	372.85935	0.0025895
1182	74.05	384.299	367.07296	0.002602141
1183	74.1	423.451	404.35904	0.002361548
1184	74.15	518.978	493.18083	0.001926864
1185	74.2	674.741	640.22875	0.00148205
1186	74.25	859.16	844.37459	0.001163928
1187	74.3	1120.085	1087.25211	0.000892789
1188	74.35	1358.845	1330.55448	0.000735919
1189	74.4	1561.14	1522.40058	0.000640558
1190	74.45	1622.523	1597.38029	0.000616324
1191	74.5	1574.662	1504.21456	0.000635057
1192	74.55	1391.659	1270.88216	0.000718567
1193	74.6	1090.972	987.32323	0.000916614
1194	74.65	787.506	728.41757	0.001269832
1195	74.7	568.202	528.74883	0.001759937
1196	74.75	425.21	393.15218	0.002351779
1197	74.8	331.531	310.34773	0.003016309
1198	74.85	285.125	264.14189	0.003507234
1199	74.9	255.902	240.83182	0.003907746
1200	74.95	249.911	231.78176	0.004001425
1201	75	236.098	232.6533	0.004235529
1202	75.05	235.82	241.29821	0.004240522
1203	75.1	249.218	255.70259	0.004012551
1204	75.15	264.822	272.53372	0.003776121
1205	75.2	286.187	286.95422	0.003494219
1206	75.25	298.815	296.05589	0.003346552
1207	75.3	312.455	305.15056	0.003200461
1208	75.35	329.043	327.90779	0.003039116
1209	75.4	374.22	380.32238	0.002672225
1210	75.45	467.954	475.33988	0.002136962
1211	75.5	616.068	616.80413	0.001623197
1212	75.55	792.54	791.58025	0.001261766
1213	75.6	986.747	961.35501	0.001013431
1214	75.65	1154.592	1062.26055	0.000866107
1215	75.7	1178.193	1039.21574	0.000848757
1216	75.75	1051.299	903.21011	0.000951204
1217	75.8	813.982	718.54722	0.001228528
1218	75.85	596.734	542.04563	0.001675789
1219	75.9	430.259	402.08903	0.002324181
1220	75.95	316.771	304.96489	0.003156855
1221	76	255.007	244.15676	0.003921461
1222	76.05	211.559	208.54197	0.004726814
1223	76.1	181.072	187.98002	0.005522665
1224	76.15	173.516	175.53219	0.005763157
1225	76.2	163.261	167.28357	0.006125162
1226	76.25	157.709	161.29552	0.006340792
1227	76.3	146.805	156.66103	0.006811757
1228	76.35	142.044	152.93819	0.007040072
1229	76.4	140.791	149.88257	0.007102727
1230	76.45	141.315	147.3383	0.00707639
1231	76.5	138.267	145.19599	0.007232384
1232	76.55	136.889	143.37491	0.007305189
1233	76.6	139.827	141.81397	0.007151695
1234	76.65	135.108	140.46614	0.007401486
1235	76.7	131.763	139.29473	0.007589384
1236	76.75	135.53	138.2708	0.00737844
1237	76.8	129.121	137.37126	0.007744674
1238	76.85	134.392	136.57751	0.007440919
1239	76.9	140.441	135.87444	0.007120428
1240	76.95	139.009	135.24968	0.007193779
1241	77	134.501	134.69302	0.007434889
1242	77.05	134.13	134.19597	0.007455454
1243	77.1	132.404	133.75144	0.007552642
1244	77.15	134.766	133.35347	0.007420269
1245	77.2	138.259	132.99705	0.007232802
1246	77.25	139	132.6779	0.007194245
1247	77.3	135.695	132.39243	0.007369468
1248	77.35	133.061	132.13754	0.00751535
1249	77.4	135.47	131.91063	0.007381708
1250	77.45	134.331	131.75084	0.007444298
1251	77.5	135.502	131.58415	0.007379965
1252	77.55	140.2	131.42941	0.007132668
1253	77.6	133.273	131.29559	0.007503395
1254	77.65	138.272	131.18159	0.007232122
1255	77.7	145.195	131.08651	0.00688729
1256	77.75	141.61	131.00965	0.007061648
1257	77.8	136.45	130.95052	0.007328692
1258	77.85	137.253	130.90877	0.007285815
1259	77.9	136.926	130.8977	0.007303215
1260	77.95	139.217	130.89339	0.007183031
1261	78	138.882	130.90368	0.007200357
1262	78.05	142.917	130.93738	0.006997068
1263	78.1	139.491	130.984	0.007168921
1264	78.15	134.057	131.04989	0.007459513
1265	78.2	134	131.13613	0.007462687
1266	78.25	131.625	131.24411	0.007597341
1267	78.3	136.648	131.37552	0.007318073
1268	78.35	137.987	131.53168	0.00724706
1269	78.4	132.174	131.71393	0.007565784
1270	78.45	134.384	131.92039	0.007441362
1271	78.5	139.354	132.1625	0.007175969
1272	78.55	134.033	132.454	0.007460849
1273	78.6	131.794	132.79108	0.007587599
1274	78.65	137.212	133.18082	0.007287992
1275	78.7	137.74	133.632	0.007260055
1276	78.75	125.371	134.15556	0.007976326
1277	78.8	131.785	134.76529	0.007588117
1278	78.85	137.589	135.47864	0.007268023
1279	78.9	136.799	136.31803	0.007309995
1280	78.95	138.959	137.31254	0.007196367
1281	79	139.144	138.50048	0.007186799
1282	79.05	136.546	139.93352	0.007323539
1283	79.1	142.189	141.68361	0.007032893
1284	79.15	141.64	143.86022	0.007060152
1285	79.2	152.477	146.65181	0.006558366
1286	79.25	154.056	150.43027	0.006491146
1287	79.3	157.877	155.98182	0.006334045
1288	79.35	171.436	164.92239	0.005833081
1289	79.4	186.538	180.23448	0.005360838
1290	79.45	210.476	206.56413	0.004751136
1291	79.5	253.314	249.57794	0.00394767
1292	79.55	320.678	313.73285	0.003118393
1293	79.6	398.017	398.5324	0.002512455
1294	79.65	484.214	493.98082	0.002065203
1295	79.7	547.108	576.16931	0.001827793
1296	79.75	594.137	610.41566	0.001683113
1297	79.8	555.903	577.42611	0.001798875
1298	79.85	488.602	496.38753	0.002046656
1299	79.9	412.709	402.36899	0.002423015
1300	79.95	338.31	319.57861	0.002955869
1301	80	280.528	258.43901	0.003564707
1302	80.05	237.384	220.30567	0.004212584
1303	80.1	225.34	202.13502	0.004437739
1304	80.15	224.542	200.08547	0.00445351
1305	80.2	237.509	211.11853	0.004210367
1306	80.25	251.358	232.48933	0.003978389
1307	80.3	268.971	259.99119	0.003717873
1308	80.35	289.67	285.90552	0.003452204
1309	80.4	303.283	298.76266	0.00329725
1310	80.45	291.098	290.19696	0.003435269
1311	80.5	266.768	264.0957	0.003748576
1312	80.55	230.419	231.7583	0.00433992
1313	80.6	201.549	201.96656	0.004961573
1314	80.65	181.696	178.75728	0.005503698
1315	80.7	164.16	162.75596	0.006091618
1316	80.75	161.517	152.69189	0.006191299
1317	80.8	154.513	146.68978	0.006471947
1318	80.85	149.321	143.11071	0.006696982
1319	80.9	142.36	140.85535	0.007024445
1320	80.95	139.599	139.30775	0.007163375
1321	81	139.833	138.16098	0.007151388
1322	81.05	136.94	137.26808	0.007302468
1323	81.1	139.467	136.5546	0.007170155
1324	81.15	133.995	135.97756	0.007462965
1325	81.2	132.203	135.50863	0.007564125
1326	81.25	127.146	135.12755	0.007864974
1327	81.3	133.876	134.81917	0.007469599
1328	81.35	135.641	134.57195	0.007372402
1329	81.4	133.606	134.37697	0.007484694
1330	81.45	133.836	134.22731	0.007471831
1331	81.5	133.183	134.11756	0.007508466
1332	81.55	134.755	134.04347	0.007420875
1333	81.6	130.243	134.00174	0.007677956
1334	81.65	134.011	133.98985	0.007462074
1335	81.7	141.113	134.0389	0.007086519
1336	81.75	134.305	134.08244	0.007445739
1337	81.8	129.144	134.15076	0.007743294
1338	81.85	133.576	134.24413	0.007486375
1339	81.9	133.667	134.36237	0.007481278
1340	81.95	133.484	134.50566	0.007491535
1341	82	136.362	134.67451	0.007333421
1342	82.05	135.894	134.86976	0.007358677
1343	82.1	135.092	135.09262	0.007402363
1344	82.15	133.775	135.34463	0.007475238
1345	82.2	129.454	135.62777	0.007724752
1346	82.25	129.216	135.94442	0.00773898
1347	82.3	133.262	136.29749	0.007504015
1348	82.35	130.998	136.69044	0.007633704
1349	82.4	137.37	137.12741	0.00727961
1350	82.45	136.351	137.6133	0.007334013
1351	82.5	135.067	138.15395	0.007403733
1352	82.55	141.779	138.75629	0.007053231
1353	82.6	142.17	139.43955	0.007033833
1354	82.65	136.529	140.20105	0.007324451
1355	82.7	144.292	141.04519	0.006930391
1356	82.75	143.124	141.99553	0.006986948
1357	82.8	143.625	143.06961	0.006962576
1358	82.85	141.28	144.28891	0.007078143
1359	82.9	152.869	145.67993	0.006541549
1360	82.95	148.437	147.27566	0.006736865
1361	83	145.898	149.11754	0.006854104
1362	83.05	150.258	151.25819	0.00665522
1363	83.1	150.295	153.76513	0.006653581
1364	83.15	149.975	156.72621	0.006667778
1365	83.2	151.548	160.31182	0.006598569
1366	83.25	159.278	164.57324	0.006278331
1367	83.3	163.432	169.79097	0.006118753
1368	83.35	171.344	176.33939	0.005836213
1369	83.4	175.544	184.87235	0.005696577
1370	83.45	184.537	196.72659	0.005418967
1371	83.5	205.052	214.67026	0.004876812
1372	83.55	225.48	243.99564	0.004434983
1373	83.6	281.432	293.57003	0.003553256
1374	83.65	371.354	375.643	0.002692848
1375	83.7	500.277	502.92583	0.001998893
1376	83.75	709.502	682.34173	0.001409439
1377	83.8	971.841	906.29634	0.001028975
1378	83.85	1214.189	1142.02884	0.000823595
1379	83.9	1417.029	1324.53992	0.000705702
1380	83.95	1524.425	1386.04638	0.000655985
1381	84	1432.532	1323.85833	0.000698065
1382	84.05	1250.887	1191.44761	0.000799433
1383	84.1	1056.448	1026.88875	0.000946568
1384	84.15	850.522	844.52411	0.001175749
1385	84.2	668.706	665.26889	0.001495425
1386	84.25	516.989	512.54561	0.001934277
1387	84.3	410.714	396.32987	0.002434784
1388	84.35	333.711	314.99533	0.002996605
1389	84.4	282.387	261.8121	0.00354124
1390	84.45	241.411	228.85779	0.004142313
1391	84.5	217.073	209.27093	0.004606745
1392	84.55	204.62	198.30908	0.004887108
1393	84.6	198.438	193.44777	0.005039357
1394	84.65	203.845	194.2351	0.004905688
1395	84.7	203.273	201.63402	0.004919493
1396	84.75	227.98	217.10386	0.00438635
1397	84.8	248.754	241.29253	0.004020036
1398	84.85	272.509	272.45096	0.003669604
1399	84.9	301.638	304.69883	0.003315232
1400	84.95	319.787	326.88229	0.003127081
1401	85	320.736	327.01259	0.003117829
1402	85.05	308.444	304.22789	0.00324208
1403	85.1	266.956	269.99672	0.003745936
1404	85.15	233.246	236.1841	0.004287319
1405	85.2	218.731	209.32303	0.004571826
1406	85.25	198.763	191.41642	0.005031117
1407	85.3	184.352	181.4152	0.005424405
1408	85.35	179.9	176.52911	0.005558644
1409	85.4	178.415	173.32377	0.00560491
1410	85.45	173.136	169.29279	0.005775806
1411	85.5	165.39	163.90906	0.006046315
1412	85.55	160.255	158.16836	0.006240055
1413	85.6	151.557	153.02083	0.006598178
1414	85.65	151.409	148.9172	0.006604627
1415	85.7	147.555	145.91224	0.006777134
1416	85.75	145.365	143.82664	0.006879235
1417	85.8	142.442	142.39985	0.007020401
1418	85.85	140.678	141.39744	0.007108432
1419	85.9	131.146	140.65489	0.00762509
1420	85.95	141.792	140.07419	0.007052584
1421	86	142.438	139.60219	0.007020598
1422	86.05	135.148	139.2105	0.007399296
1423	86.1	133.088	138.88279	0.007513825
1424	86.15	140.444	138.60855	0.007120276
1425	86.2	141.707	138.38417	0.007056814
1426	86.25	136.507	138.19728	0.007325632
1427	86.3	135.683	138.04534	0.00737012
1428	86.35	134.949	137.94671	0.007410207
1429	86.4	136.341	137.87932	0.007334551
1430	86.45	135.238	137.82059	0.007394371
1431	86.5	136.51	137.78607	0.007325471
1432	86.55	136.823	137.77714	0.007308713
1433	86.6	138.151	137.79323	0.007238456
1434	86.65	143.118	137.83418	0.006987241
1435	86.7	136.772	137.90018	0.007311438
1436	86.75	134.04	137.99183	0.00746046
1437	86.8	134.753	138.11009	0.007420985
1438	86.85	134.712	138.25639	0.007423244
1439	86.9	146.003	138.43259	0.006849174
1440	86.95	136.601	138.64114	0.007320591
1441	87	137.638	138.88509	0.007265435
1442	87.05	134.714	139.16825	0.007423133
1443	87.1	139.636	139.49534	0.007161477
1444	87.15	128.11	139.8722	0.007805792
1445	87.2	134.1	140.30605	0.007457122
1446	87.25	137.582	140.80583	0.007268393
1447	87.3	133.656	141.38273	0.007481894
1448	87.35	140.259	142.05076	0.007129667
1449	87.4	138.955	142.82767	0.007196574
1450	87.45	141.054	143.73612	0.007089483
1451	87.5	142.247	144.80539	0.007030025
1452	87.55	148.179	146.07377	0.006748595
1453	87.6	150.413	147.59231	0.006648362
1454	87.65	142.63	149.43136	0.007011148
1455	87.7	144.539	151.69437	0.006918548
1456	87.75	152.848	154.55125	0.006542447
1457	87.8	152.616	158.32047	0.006552393
1458	87.85	154.488	163.65311	0.006472995
1459	87.9	160.578	171.8783	0.006227503
1460	87.95	171.773	185.49572	0.005821637
1461	88	196.081	208.57719	0.005099933
1462	88.05	241.843	246.52114	0.004134914
1463	88.1	289.79	304.51576	0.003450775
1464	88.15	389.119	384.54524	0.002569908
1465	88.2	523.103	481.27157	0.001911669
1466	88.25	644.061	577.40657	0.001552648
1467	88.3	739.423	640.83169	0.001352406
1468	88.35	708.851	639.09225	0.001410734
1469	88.4	591.52	573.35791	0.00169056
1470	88.45	462.293	476.94953	0.00216313
1471	88.5	346.411	381.29535	0.002886744
1472	88.55	268.782	302.89889	0.003720487
1473	88.6	219.787	246.59615	0.00454986
1474	88.65	191.123	210.14828	0.005232233
1475	88.7	182.077	188.28873	0.005492182
1476	88.75	166.177	175.66723	0.00601768
1477	88.8	170.529	168.30797	0.005864105
1478	88.85	167.519	163.79789	0.005969472
1479	88.9	151.369	160.86813	0.006606373
1480	88.95	157.1	158.90668	0.006365372
1481	89	148.867	157.62258	0.006717405
1482	89.05	158.848	156.86692	0.006295326
1483	89.1	155.486	156.56547	0.006431447
1484	89.15	157.413	156.68972	0.006352715
1485	89.2	163.834	157.20096	0.006103739
1486	89.25	169.05	158.13126	0.00591541
1487	89.3	167.302	159.56316	0.005977215
1488	89.35	174.266	161.53173	0.005738354
1489	89.4	180.773	164.15063	0.0055318
1490	89.45	180.404	167.60771	0.005543114
1491	89.5	178.172	172.2435	0.005612554
1492	89.55	187.346	178.73811	0.005337717
1493	89.6	190.966	188.49846	0.005236534
1494	89.65	206.584	204.30628	0.004840646
1495	89.7	239.468	231.08337	0.004175923
1496	89.75	290.104	276.20665	0.00344704
1497	89.8	363.847	348.399	0.002748408
1498	89.85	487.879	454.39492	0.002049689
1499	89.9	633.778	593.56979	0.00157784
1500	89.95	838.257	751.35731	0.001192952
1501	90	1030.063	892.01109	0.000970814
1502	90.05	1096.769	960.22606	0.000911769
1503	90.1	1006.232	918.57067	0.000993807
1504	90.15	841.962	790.70115	0.001187702
1505	90.2	618.724	632.72172	0.00161623
1506	90.25	452.456	486.52541	0.00221016
1507	90.3	338.366	371.43159	0.00295538
1508	90.35	252.545	290.95311	0.00395969
1509	90.4	221.33	239.64398	0.00451814
1510	90.45	195.082	208.83823	0.00512605
1511	90.5	174.044	190.6236	0.005745674
1512	90.55	169.479	179.4799	0.005900436
1513	90.6	165.223	172.10016	0.006052426
1514	90.65	146.05	166.80017	0.00684697
1515	90.7	151.283	162.75749	0.006610128
1516	90.75	146.797	159.5603	0.006812128
1517	90.8	146.622	156.97993	0.006820259
1518	90.85	139.551	154.87195	0.007165839
1519	90.9	141.223	153.14863	0.007081
1520	90.95	136.642	151.72686	0.007318394
1521	91	145.713	150.53656	0.006862806
1522	91.05	136.051	149.54203	0.007350185
1523	91.1	146.572	148.71432	0.006822585
1524	91.15	138.545	148.02809	0.007217871
1525	91.2	138.523	147.46317	0.007219018
1526	91.25	141.387	147.00367	0.007072786
1527	91.3	135.2	146.63707	0.00739645
1528	91.35	139.557	146.35355	0.007165531
1529	91.4	147.352	146.14548	0.00678647
1530	91.45	142.118	146.00707	0.007036406
1531	91.5	138.287	145.93408	0.007231338
1532	91.55	141.776	145.92362	0.00705338
1533	91.6	141.23	145.97404	0.007080649
1534	91.65	141.6	146.08484	0.007062147
1535	91.7	142.088	146.25664	0.007037892
1536	91.75	143.917	146.49119	0.006948449
1537	91.8	151.584	146.79144	0.006597002
1538	91.85	143.444	147.16158	0.006971362
1539	91.9	151.501	147.60728	0.006600616
1540	91.95	149.047	148.13587	0.006709293
1541	92	152.39	148.75667	0.00656211
1542	92.05	149.123	149.48138	0.006705874
1543	92.1	145.18	150.32463	0.006888001
1544	92.15	145.78	151.3047	0.006859652
1545	92.2	153.063	152.44451	0.006533258
1546	92.25	147.779	153.77289	0.006766861
1547	92.3	149.126	155.3264	0.006705739
1548	92.35	148.366	157.1518	0.006740089
1549	92.4	155.503	159.30949	0.006430744
1550	92.45	159.973	161.87867	0.006251055
1551	92.5	168.452	164.96565	0.005936409
1552	92.55	169.393	168.71949	0.005903432
1553	92.6	179.529	173.36716	0.005570131
1554	92.65	180.291	179.29791	0.005546589
1555	92.7	196.512	187.25915	0.005088748
1556	92.75	215.906	198.75563	0.004631645
1557	92.8	239.969	216.71265	0.004167205
1558	92.85	280.007	246.26412	0.003571339
1559	92.9	338.517	295.1126	0.002954061
1560	92.95	410.247	372.498	0.002437556
1561	93	512.898	485.94409	0.001949705
1562	93.05	652.582	635.88484	0.001532374
1563	93.1	791.549	808.93421	0.001263346
1564	93.15	909.307	970.08464	0.001099739
1565	93.2	975.099	1061.62574	0.001025537
1566	93.25	952.06	1037.32874	0.001050354
1567	93.3	828.806	914.04086	0.001206555
1568	93.35	706.734	752.39711	0.00141496
1569	93.4	580.6	603.63312	0.001722356
1570	93.45	493.587	495.12614	0.002025985
1571	93.5	454.217	436.14492	0.002201591
1572	93.55	446.011	423.7494	0.002242097
1573	93.6	471.652	446.83605	0.002120207
1574	93.65	502.434	487.89917	0.001990311
1575	93.7	527.115	523.41739	0.001897119
1576	93.75	530.937	531.31656	0.001883463
1577	93.8	498.384	506.44881	0.002006485
1578	93.85	441.574	458.80463	0.002264626
1579	93.9	387.169	399.44199	0.002582851
1580	93.95	329.973	338.65327	0.003030551
1581	94	277.987	285.41595	0.003597291
1582	94.05	239.628	244.02467	0.004173135
1583	94.1	202.698	214.44351	0.004933448
1584	94.15	182.583	194.4967	0.005476961
1585	94.2	174.044	181.48019	0.005745674
1586	94.25	171.551	173.00729	0.00582917
1587	94.3	173.008	167.32219	0.00578008
1588	94.35	163.853	163.29433	0.006103031
1589	94.4	152.838	160.26552	0.006542875
1590	94.45	153.271	157.87578	0.006524391
1591	94.5	153.861	155.94963	0.006499373
1592	94.55	149.691	154.34826	0.006680428
1593	94.6	146.089	153.01242	0.006845142
1594	94.65	141.645	151.90683	0.007059903
1595	94.7	141.281	151.00028	0.007078093
1596	94.75	142.755	150.33404	0.007005009
1597	94.8	145.916	149.88629	0.006853258
1598	94.85	149.203	149.64572	0.006702278
1599	94.9	144.283	149.56908	0.006930823
1600	94.95	144.465	149.55871	0.006922092
1601	95	148.075	149.44893	0.006753334
1602	95.05	146.179	149.07133	0.006840928
1603	95.1	140.65	148.41224	0.007109847
1604	95.15	141.529	147.62158	0.00706569
1605	95.2	145.755	146.87434	0.006860828
1606	95.25	147.384	146.22558	0.006784997
1607	95.3	141.605	145.71241	0.007061898
1608	95.35	139.383	145.3277	0.007174476
1609	95.4	138.819	145.04445	0.007203625
1610	95.45	140.937	144.84587	0.007095369
1611	95.5	151.219	144.70289	0.006612926
1612	95.55	143.479	144.59941	0.006969661
1613	95.6	145.411	144.52475	0.006877059
1614	95.65	140.673	144.47452	0.007108685
1615	95.7	143.358	144.44611	0.006975544
1616	95.75	132.943	144.43798	0.007522021
1617	95.8	139.904	144.44913	0.007147758
1618	95.85	139.099	144.47895	0.007189124
1619	95.9	137.39	144.52708	0.00727855
1620	95.95	145.595	144.59344	0.006868368
1621	96	142.771	144.67812	0.007004224
1622	96.05	144.667	144.78145	0.006912426
1623	96.1	146.161	144.90395	0.00684177
1624	96.15	148.135	145.04634	0.006750599
1625	96.2	153.727	145.2096	0.006505038
1626	96.25	153.99	145.39492	0.006493928
1627	96.3	150.782	145.60378	0.006632091
1628	96.35	144.454	145.83798	0.006922619
1629	96.4	149.74	146.09967	0.006678242
1630	96.45	150.633	146.3914	0.006638652
1631	96.5	146.969	146.71622	0.006804156
1632	96.55	150.787	147.07775	0.006631871
1633	96.6	142.605	147.48032	0.007012377
1634	96.65	143.776	147.92911	0.006955264
1635	96.7	148.745	148.43029	0.006722915
1636	96.75	147.321	148.99134	0.006787899
1637	96.8	149.689	149.6213	0.006680518
1638	96.85	147.871	150.33119	0.006762651
1639	96.9	149.615	151.13456	0.006683822
1640	96.95	151.117	152.04819	0.006617389
1641	97	149.256	153.09301	0.006699898
1642	97.05	147.869	154.29547	0.006762743
1643	97.1	152.113	155.68927	0.00657406
1644	97.15	155.505	157.318	0.006430661
1645	97.2	150.647	159.23915	0.006638035
1646	97.25	156.593	161.53124	0.006385981
1647	97.3	154.797	164.30866	0.006460074
1648	97.35	166.65	167.75599	0.0060006
1649	97.4	168.349	172.20728	0.005940041
1650	97.45	171.171	178.31352	0.005842111
1651	97.5	189.686	187.34307	0.00527187
1652	97.55	205.089	201.60266	0.004875932
1653	97.6	229.866	224.80497	0.004350361
1654	97.65	276.084	261.9764	0.003622086
1655	97.7	338.21	318.38814	0.002956743
1656	97.75	427.701	397.2537	0.002338082
1657	97.8	547.819	496.45198	0.00182542
1658	97.85	655.769	604.48261	0.001524927
1659	97.9	735.685	696.20445	0.001359277
1660	97.95	745.825	736.19473	0.001340797
1661	98	680.711	704.12245	0.001469052
1662	98.05	552.586	617.32442	0.001809673
1663	98.1	439.634	511.17195	0.002274619
1664	98.15	362.007	412.15016	0.002762378
1665	98.2	293.639	332.92077	0.003405542
1666	98.25	250.483	276.36389	0.003992287
1667	98.3	222.963	239.67279	0.004485049
1668	98.35	204.575	217.71986	0.004888183
1669	98.4	192.404	205.48037	0.005197397
1670	98.45	189.298	199.2381	0.005282676
1671	98.5	197.46	196.8038	0.005064317
1672	98.55	190.658	197.28195	0.005244994
1673	98.6	197.257	200.83346	0.005069529
1674	98.65	208.642	208.62251	0.004792899
1675	98.7	222.785	222.78628	0.004488633
1676	98.75	244.435	246.23172	0.004091067
1677	98.8	283.295	281.91698	0.003529889
1678	98.85	341.65	331.38535	0.002926972
1679	98.9	413.22	392.84131	0.002420018
1680	98.95	485.695	458.73872	0.002058905
1681	99	520.195	513.48405	0.001922356
1682	99.05	515.123	536.51416	0.001941284
1683	99.1	499.1	518.47462	0.002003606
1684	99.15	446.412	471.95355	0.002240083
1685	99.2	401.778	418.60975	0.002488937
1686	99.25	360.248	375.24211	0.002775866
1687	99.3	356.233	352.54004	0.002807151
1688	99.35	376.835	357.90082	0.002653681
1689	99.4	417.305	397.67564	0.002396329
1690	99.45	506.434	477.4637	0.001974591
1691	99.5	641.013	600.125	0.001560031
1692	99.55	814.351	761.67625	0.001227972
1693	99.6	990.744	945.40034	0.001009342
1694	99.65	1179.427	1114.8501	0.000847869
1695	99.7	1260.46	1216.79721	0.000793361
1696	99.75	1205.653	1216.382	0.000829426
1697	99.8	1106.438	1132.84898	0.000903801
1698	99.85	969.469	1011.74834	0.001031492
1699	99.9	835.02	880.89525	0.001197576
1700	99.95	701.563	747.00516	0.001425389
1701	100	582.585	615.8532	0.001716488
1702	100.05	464.6	498.833	0.002152389
1703	100.1	364.555	403.89948	0.00274307
1704	100.15	308.147	332.21706	0.003245204
1705	100.2	254.445	280.97022	0.003930122
1706	100.25	230.897	245.88397	0.004330935
1707	100.3	217.899	222.52142	0.004589282
1708	100.35	201.447	207.02	0.004964085
1709	100.4	183.737	196.4878	0.005442562
1710	100.45	179.808	188.98196	0.005561488
1711	100.5	174.752	183.34496	0.005722395
1712	100.55	168.64	178.92547	0.005929791
1713	100.6	161.544	175.35961	0.006190264
1714	100.65	169.788	172.43466	0.005889698
1715	100.7	158.681	170.01786	0.006301952
1716	100.75	147.849	168.03657	0.006763658
1717	100.8	157.314	166.38851	0.006356713
1718	100.85	151.047	165.03721	0.006620456
1719	100.9	153.352	163.94644	0.006520945
1720	100.95	158.003	163.08314	0.006328994
1721	101	148.7	162.43393	0.00672495
1722	101.05	149.942	161.99002	0.006669245
1723	101.1	149.293	161.74983	0.006698238
1724	101.15	149.455	161.72	0.006690977
1725	101.2	150.873	161.91688	0.006628091
1726	101.25	153.681	162.37173	0.006506985
1727	101.3	156.493	163.14174	0.006390062
1728	101.35	159.876	164.3357	0.006254848
1729	101.4	155.93	166.16766	0.006413134
1730	101.45	160.491	169.05302	0.006230879
1731	101.5	169.52	173.74666	0.005899009
1732	101.55	180.084	181.47612	0.005552964
1733	101.6	189.158	193.95327	0.005286586
1734	101.65	206.845	213.10032	0.004834538
1735	101.7	231.545	240.37925	0.004318815
1736	101.75	265.998	275.76668	0.003759427
1737	101.8	301.414	316.47277	0.003317696
1738	101.85	323.17	355.43367	0.003094347
1739	101.9	346.814	380.72688	0.00288339
1740	101.95	332.991	381.21988	0.003003084
1741	102	318.314	356.96992	0.003141552
1742	102.05	281.244	319.12948	0.003555631
1743	102.1	247.004	279.63222	0.004048517
1744	102.15	228.719	245.77126	0.004372177
1745	102.2	207.156	220.56811	0.00482728
1746	102.25	200.236	204.21969	0.004994107
1747	102.3	193.673	195.30156	0.005163342
1748	102.35	185.556	191.69302	0.005389209
1749	102.4	191.685	191.12478	0.005216892
1750	102.45	188.431	191.40451	0.005306982
1751	102.5	191.575	190.82736	0.005219888
1752	102.55	185.375	188.9249	0.005394471
1753	102.6	186.177	186.42119	0.005371233
1754	102.65	183.18	184.30672	0.005459111
1755	102.7	181.384	183.29018	0.005513165
1756	102.75	186.536	183.80874	0.005360895
1757	102.8	186.192	186.20228	0.0053708
1758	102.85	200.307	190.91307	0.004992337
1759	102.9	212.063	198.68436	0.00471558
1760	102.95	223.28	210.76766	0.004478681
1761	103	248.894	229.10288	0.004017775
1762	103.05	265.743	256.45992	0.003763034
1763	103.1	315.563	296.43021	0.003168939
1764	103.15	369.729	352.92939	0.002704684
1765	103.2	445.864	428.80478	0.002242836
1766	103.25	521.272	524.27081	0.001918384
1767	103.3	624.518	636.35108	0.001601235
1768	103.35	754.547	757.94573	0.001325298
1769	103.4	879.158	871.31074	0.001137452
1770	103.45	958.245	942.93748	0.001043574
1771	103.5	940.197	938.35294	0.001063607
1772	103.55	834.673	854.77047	0.001198074
1773	103.6	693.996	724.96449	0.00144093
1774	103.65	534.447	586.88036	0.001871093
1775	103.7	423.099	464.58619	0.002363513
1776	103.75	340.858	368.30228	0.002933773
1777	103.8	272.064	299.08332	0.003675606
1778	103.85	243.96	252.72285	0.004099033
1779	103.9	217.569	223.11071	0.004596243
1780	103.95	198.478	204.50061	0.005038342
1781	104	189.01	192.50925	0.005290725
1782	104.05	177.746	184.34307	0.005626006
1783	104.1	171.731	178.40263	0.00582306
1784	104.15	169.048	173.82859	0.00591548
1785	104.2	164.826	170.16486	0.006067004
1786	104.25	159.382	167.15665	0.006274234
1787	104.3	156.747	164.64728	0.006379707
1788	104.35	149.48	162.53041	0.006689858
1789	104.4	157.529	160.72864	0.006348038
1790	104.45	157.147	159.18327	0.006363469
1791	104.5	157.205	157.84874	0.006361121
1792	104.55	153.082	156.70187	0.006532447
1793	104.6	147.235	155.71001	0.006791863
1794	104.65	146.26	154.82847	0.006837139
1795	104.7	147.225	154.04828	0.006792325
1796	104.75	146.679	153.35578	0.006817609
1797	104.8	151.698	152.73911	0.006592045
1798	104.85	151.284	152.18831	0.006610084
1799	104.9	143.942	151.69541	0.006947243
1800	104.95	145.903	151.25328	0.006853869
1801	105	148.277	150.85579	0.006744134
1802	105.05	143.124	150.49772	0.006986948
1803	105.1	148.681	150.17464	0.006725809
1804	105.15	148.418	149.88272	0.006737727
1805	105.2	147.037	149.61871	0.006801009
1806	105.25	145.356	149.37976	0.006879661
1807	105.3	153.385	149.16344	0.006519542
1808	105.35	148.112	148.96765	0.006751647
1809	105.4	152.066	148.7905	0.006576092
1810	105.45	149.197	148.63035	0.006702548
1811	105.5	140.724	148.48577	0.007106108
1812	105.55	142.89	148.37077	0.00699839
1813	105.6	153.196	148.25382	0.006527586
1814	105.65	148.088	148.11296	0.006752742
1815	105.7	140.741	148.02186	0.00710525
1816	105.75	147.547	147.94067	0.006777501
1817	105.8	144.623	147.86899	0.00691453
1818	105.85	148.323	147.80643	0.006742043
1819	105.9	152.854	147.75281	0.006542191
1820	105.95	155.656	147.71428	0.006424423
1821	106	157.24	147.67998	0.006359705
1822	106.05	150.016	147.65242	0.006665956
1823	106.1	149.257	147.63199	0.006699853
1824	106.15	154.303	147.61869	0.006480755
1825	106.2	145.689	147.61246	0.006863936
1826	106.25	149.67	147.61325	0.006681366
1827	106.3	147.279	147.62112	0.006789834
1828	106.35	146.531	147.63609	0.006824494
1829	106.4	150.961	147.65819	0.006624227
1830	106.45	150.311	147.68748	0.006652873
1831	106.5	152.778	147.72406	0.006545445
1832	106.55	141.956	147.76811	0.007044436
1833	106.6	148.384	147.81983	0.006739271
1834	106.65	151.023	147.88382	0.006621508
1835	106.7	151.481	147.95465	0.006601488
1836	106.75	149.039	148.03934	0.006709653
1837	106.8	146.445	148.136	0.006828502
1838	106.85	139.212	148.23718	0.007183289
1839	106.9	153.723	148.34608	0.006505207
1840	106.95	148.443	148.46465	0.006736592
1841	107	149.742	148.59416	0.006678153
1842	107.05	150.484	148.73698	0.006645225
1843	107.1	148.597	148.89446	0.006729611
1844	107.15	146.977	149.07573	0.006803786
1845	107.2	143.347	149.27011	0.006976079
1846	107.25	148.591	149.47878	0.006729883
1847	107.3	144.454	149.70612	0.006922619
1848	107.35	150.816	149.96178	0.006630596
1849	107.4	147.377	150.24561	0.006785319
1850	107.45	142.575	150.56011	0.007013852
1851	107.5	151.831	150.90116	0.00658627
1852	107.55	153.124	151.274	0.006530655
1853	107.6	158.926	151.68891	0.006292237
1854	107.65	150.961	152.15089	0.006624227
1855	107.7	148.809	152.66349	0.006720024
1856	107.75	152.966	153.23724	0.0065374
1857	107.8	152.549	153.88303	0.006555271
1858	107.85	159.272	154.61365	0.006278567
1859	107.9	156.704	155.44475	0.006381458
1860	107.95	157.523	156.39548	0.006348279
1861	108	157.95	157.4897	0.006331117
1862	108.05	158.803	158.7575	0.00629711
1863	108.1	150.524	160.2375	0.006643459
1864	108.15	161.034	161.98019	0.006209869
1865	108.2	171.167	164.05456	0.005842248
1866	108.25	180.844	166.56135	0.005529628
1867	108.3	185.69	169.66174	0.00538532
1868	108.35	178.999	173.63693	0.005586623
1869	108.4	193.842	179.00133	0.005158841
1870	108.45	201.944	186.68839	0.004951868
1871	108.5	221.935	198.29732	0.004505824
1872	108.55	247.019	216.31547	0.004048272
1873	108.6	281.716	244.13007	0.003549674
1874	108.65	310.048	285.5812	0.003225307
1875	108.7	382.246	343.88064	0.002616116
1876	108.75	445.68	419.93038	0.002243762
1877	108.8	517.431	510.18885	0.001932625
1878	108.85	602.581	604.04266	0.001659528
1879	108.9	654.607	681.49436	0.001527634
1880	108.95	678.178	717.01127	0.001474539
1881	109	651.386	695.86992	0.001535188
1882	109.05	609.686	627.70244	0.001640189
1883	109.1	521.295	536.61208	0.0019183
1884	109.15	442.25	444.4068	0.002261164
1885	109.2	390.88	364.08182	0.00255833
1886	109.25	327.426	300.93016	0.003054125
1887	109.3	278.758	255.1039	0.003587341
1888	109.35	246.814	223.88066	0.004051634
1889	109.4	221.796	203.49356	0.004508648
1890	109.45	208.502	190.38631	0.004796117
1891	109.5	195.502	181.82062	0.005115037
1892	109.55	189.685	175.96302	0.005271898
1893	109.6	184.682	171.71734	0.005414713
1894	109.65	176.038	168.48288	0.005680592
1895	109.7	168.89	165.9125	0.005921014
1896	109.75	163.888	163.81096	0.006101728
1897	109.8	159.2	162.07412	0.006281407
1898	109.85	161.752	160.61975	0.006182304
1899	109.9	162.505	159.39286	0.006153657
1900	109.95	153.498	158.35203	0.006514743
1901	110	155.299	157.4652	0.006439191
1902	110.05	159.6	156.70714	0.006265664
1903	110.1	157.805	156.05777	0.006336935
1904	110.15	162.761	155.50101	0.006143978
1905	110.2	159.816	155.02384	0.006257196
1906	110.25	158.999	154.61573	0.006289348
1907	110.3	163.238	154.26806	0.006126025
1908	110.35	163.001	153.97382	0.006134932
1909	110.4	156.65	153.72726	0.006383658
1910	110.45	161.536	153.5237	0.006190571
1911	110.5	156.098	153.35936	0.006406232
1912	110.55	156.131	153.2312	0.006404878
1913	110.6	151.372	153.13685	0.006606242
1914	110.65	151.71	153.07452	0.006591523
1915	110.7	157.304	153.04294	0.006357117
1916	110.75	155.474	153.04136	0.006431944
1917	110.8	155.342	153.06951	0.006437409
1918	110.85	154.052	153.12758	0.006491315
1919	110.9	152.836	153.2163	0.006542961
1920	110.95	151.083	153.33692	0.006618878
1921	111	153.9	153.49132	0.006497726
1922	111.05	152.43	153.68192	0.006560388
1923	111.1	146.018	153.91248	0.006848471
1924	111.15	150.274	154.18727	0.006654511
1925	111.2	154.179	154.51202	0.006485968
1926	111.25	155.082	154.89408	0.006448202
1927	111.3	158.197	155.34295	0.006321232
1928	111.35	162.365	155.87119	0.006158963
1929	111.4	158.067	156.49606	0.006326431
1930	111.45	156.634	157.24287	0.00638431
1931	111.5	161.305	158.15204	0.006199436
1932	111.55	161.999	159.29303	0.006172878
1933	111.6	159.755	160.78963	0.006259585
1934	111.65	164.384	162.85954	0.006083317
1935	111.7	166.348	165.86473	0.006011494
1936	111.75	165.1	170.35482	0.006056935
1937	111.8	173.651	177.06774	0.005758677
1938	111.85	180.343	186.84125	0.005544989
1939	111.9	188.791	200.40235	0.005296863
1940	111.95	198.317	218.0385	0.005042432
1941	112	233.831	239.17842	0.004276593
1942	112.05	274.232	261.87653	0.003646547
1943	112.1	296.645	282.28029	0.003371033
1944	112.15	325.537	294.94001	0.003071847
1945	112.2	322.335	295.49424	0.003102362
1946	112.25	292.732	284.14687	0.003416094
1947	112.3	267.297	265.33284	0.003741157
1948	112.35	235.847	244.30972	0.004240037
1949	112.4	214.557	224.88889	0.004660766
1950	112.45	195.81	209.11697	0.005106991
1951	112.5	191.378	197.72454	0.005225261
1952	112.55	185.872	190.64726	0.005380046
1953	112.6	180.588	187.47348	0.005537466
1954	112.65	189.813	187.77686	0.005268343
1955	112.7	189.486	191.28375	0.005277435
1956	112.75	192.644	197.863	0.005190922
1957	112.8	200.023	207.37275	0.004999425
1958	112.85	203.059	219.42634	0.004924677
1959	112.9	225.132	233.11713	0.004441839
1960	112.95	246.331	246.75765	0.004059578
1961	113	252.092	258.01866	0.003966806
1962	113.05	262.364	265.2378	0.003811499
1963	113.1	273.267	269.37346	0.003659425
1964	113.15	291.946	274.28616	0.003425291
1965	113.2	308.607	285.13654	0.003240367
1966	113.25	326.446	306.83195	0.003063294
1967	113.3	370.961	343.08714	0.002695701
1968	113.35	413.135	395.56087	0.002420516
1969	113.4	461.597	462.75941	0.002166392
1970	113.45	546.244	538.5825	0.001830684
1971	113.5	599.934	610.6685	0.00166685
1972	113.55	661.832	660.57827	0.001510957
1973	113.6	669.713	670.99204	0.001493177
1974	113.65	656.278	638.34793	0.001523745
1975	113.7	574.221	574.90621	0.00174149
1976	113.75	519.723	498.71343	0.001924102
1977	113.8	457.225	424.45382	0.002187107
1978	113.85	394.186	360.84722	0.002536873
1979	113.9	348.269	311.59336	0.002871344
1980	113.95	328.154	277.07516	0.00304735
1981	114	307.792	255.97087	0.003248947
1982	114.05	296.2	246.61301	0.003376097
1983	114.1	293.127	247.95086	0.003411491
1984	114.15	296.396	259.9807	0.003373865
1985	114.2	307.883	283.59603	0.003247987
1986	114.25	341.781	319.88606	0.00292585
1987	114.3	374.946	369.20651	0.002667051
1988	114.35	441.183	429.73728	0.002266633
1989	114.4	508.441	496.10384	0.001966797
1990	114.45	583.003	557.81297	0.001715257
1991	114.5	616.109	599.56125	0.001623089
1992	114.55	639.331	607.51005	0.001564135
1993	114.6	621.415	579.26305	0.001609231
1994	114.65	559.086	525.50698	0.001788634
1995	114.7	492.908	461.6316	0.002028776
1996	114.75	411.396	400.14213	0.002430748
1997	114.8	355.771	348.3655	0.002810797
1998	114.85	319.631	309.0414	0.003128608
1999	114.9	290.931	281.50643	0.003437241
2000	114.95	272.774	262.82473	0.003666039
2001	115	262.796	249.07134	0.003805233
2002	115.05	254.659	236.9733	0.00392682
2003	115.1	245.114	225.07812	0.004079734
2004	115.15	226.649	213.45343	0.004412109
2005	115.2	208.233	202.70591	0.004802313
2006	115.25	196.797	193.34802	0.005081378
2007	115.3	188.915	185.62196	0.005293386
2008	115.35	183.109	179.52252	0.005461228
2009	115.4	179.557	174.8712	0.005569262
2010	115.45	173.699	171.39895	0.005757086
2011	115.5	175.744	168.80271	0.005690095
2012	115.55	165.036	166.86229	0.006059284
2013	115.6	164.074	165.37157	0.006094811
2014	115.65	170.575	164.19106	0.005862524
2015	115.7	161.54	163.23119	0.006190417
2016	115.75	166.997	162.43525	0.005988132
2017	115.8	165.401	161.76732	0.006045913
2018	115.85	159.482	161.20382	0.0062703
2019	115.9	168.404	160.72839	0.005938101
2020	115.95	162.02	160.32898	0.006172078
2021	116	155.915	159.99636	0.006413751
2022	116.05	155.848	159.72325	0.006416508
2023	116.1	155.808	159.50384	0.006418156
2024	116.15	153.036	159.3335	0.00653441
2025	116.2	160.271	159.20854	0.006239432
2026	116.25	157.815	159.08539	0.006336533
2027	116.3	157.877	159.0296	0.006334045
2028	116.35	156.749	159.02654	0.006379626
2029	116.4	155.084	159.06121	0.006448118
2030	116.45	154.434	159.13307	0.006475258
2031	116.5	156.572	159.23025	0.006386838
2032	116.55	156.59	159.37181	0.006386104
2033	116.6	151.903	159.55709	0.006583148
2034	116.65	157.488	159.78236	0.00634969
2035	116.7	156.03	160.04959	0.006409024
2036	116.75	158.117	160.36136	0.006324431
2037	116.8	159.434	160.72093	0.006272188
2038	116.85	160.034	161.1323	0.006248672
2039	116.9	158.215	161.60039	0.006320513
2040	116.95	166.099	162.13116	0.006020506
2041	117	162.435	162.73186	0.006156309
2042	117.05	159.869	163.41125	0.006255121
2043	117.1	165.088	164.17999	0.006057375
2044	117.15	162.715	165.05108	0.006145715
2045	117.2	158.708	166.04043	0.00630088
2046	117.25	159.308	167.16771	0.006277149
2047	117.3	165.687	168.45755	0.006035477
2048	117.35	160.567	169.94141	0.00622793
2049	117.4	164.718	171.66089	0.006070982
2050	117.45	166.712	173.67409	0.005998368
2051	117.5	169.026	176.06806	0.00591625
2052	117.55	176.29	178.98269	0.005672471
2053	117.6	182.379	182.65355	0.005483087
2054	117.65	188.569	187.48139	0.005303099
2055	117.7	192.819	194.12972	0.005186211
2056	117.75	197.915	203.63567	0.005052674
2057	117.8	210.592	217.49156	0.004748518
2058	117.85	231.174	237.62454	0.004325746
2059	117.9	251.909	266.18934	0.003969687
2060	117.95	293.833	305.11645	0.003403294
2061	118	325.068	355.4227	0.003076279
2062	118.05	378.728	416.33619	0.002640417
2063	118.1	449.71	484.23754	0.002223655
2064	118.15	507.064	551.42189	0.001972138
2065	118.2	574.031	605.54938	0.001742066
2066	118.25	605.236	632.61036	0.001652248
2067	118.3	591.779	624.63571	0.00168982
2068	118.35	562.057	585.25661	0.001779179
2069	118.4	518.784	526.4044	0.001927585
2070	118.45	456.073	461.0851	0.002192631
2071	118.5	394.272	399.06654	0.00253632
2072	118.55	343.53	346.03178	0.002910954
2073	118.6	310.435	304.28521	0.003221286
2074	118.65	279.317	273.79838	0.003580162
2075	118.7	256.778	253.19815	0.003894415
2076	118.75	259.089	240.58641	0.003859678
2077	118.8	250.841	234.20921	0.003986589
2078	118.85	256.909	232.79784	0.003892429
2079	118.9	251.041	235.82986	0.003983413
2080	118.95	269.29	243.63923	0.003713469
2081	119	287.307	257.46135	0.003480597
2082	119.05	305.487	279.40598	0.003273462
2083	119.1	336.51	312.24218	0.00297168
2084	119.15	381.825	358.88324	0.002619001
2085	119.2	432.81	421.64024	0.002310483
2086	119.25	487.949	501.14387	0.002049395
2087	119.3	575.762	595.05909	0.001736829
2088	119.35	655.338	696.53584	0.00152593
2089	119.4	762.218	792.5856	0.001311961
2090	119.45	838.436	864.34436	0.001192697
2091	119.5	880.45	893.29343	0.001135783
2092	119.55	886.744	872.357	0.001127721
2093	119.6	837.368	810.63836	0.001194218
2094	119.65	759.018	726.70411	0.001317492
2095	119.7	679.124	639.41943	0.001472485
2096	119.75	612.088	563.37096	0.001633752
2097	119.8	561.716	508.23586	0.001780259
2098	119.85	516.776	479.64559	0.001935074
2099	119.9	522.87	480.14025	0.001912521
2100	119.95	538.801	509.72558	0.001855973
2101	120	575.847	565.9339	0.001736572
2102	120.05	636.09	643.37184	0.001572105
2103	120.1	701.507	732.60346	0.001425503
2104	120.15	778.775	818.82496	0.001284068
2105	120.2	857.644	882.20627	0.001165985
2106	120.25	887.872	903.93367	0.001126288
2107	120.3	884.935	876.61624	0.001130026
2108	120.35	829.546	808.3851	0.001205479
2109	120.4	742.095	716.20506	0.001347536
2110	120.45	639.67	616.9111	0.001563306
2111	120.5	542.799	522.7443	0.001842303
2112	120.55	472.03	440.80475	0.002118509
2113	120.6	400.966	374.02175	0.002493977
2114	120.65	345.888	322.49761	0.002891109
2115	120.7	318.834	284.44587	0.003136428
2116	120.75	278.954	257.2394	0.00358482
2117	120.8	258.25	238.15986	0.003872217
2118	120.85	249.14	224.84323	0.004013807
2119	120.9	227.845	215.46439	0.004388949
2120	120.95	219.898	208.73279	0.004547563
2121	121	219.144	203.79375	0.00456321
2122	121.05	208.673	200.10681	0.004792187
2123	121.1	196.799	197.34017	0.005081327
2124	121.15	196.481	195.29471	0.005089551
2125	121.2	195.022	193.85566	0.005127627
2126	121.25	191.894	192.96693	0.00521121
2127	121.3	190.597	192.62234	0.005246672
2128	121.35	190.229	192.87071	0.005256822
2129	121.4	188.174	193.83294	0.00531423
2130	121.45	194.605	195.72712	0.005138614
2131	121.5	196.793	198.89609	0.005081482
2132	121.55	191.878	203.82283	0.005211645
2133	121.6	201.667	211.11457	0.004958669
2134	121.65	215.954	221.43555	0.004630616
2135	121.7	221.588	235.37715	0.00451288
2136	121.75	235.407	253.2688	0.004247962
2137	121.8	267.628	274.94338	0.00373653
2138	121.85	299.482	299.45841	0.003339099
2139	121.9	327.538	324.76727	0.003053081
2140	121.95	352.453	347.49403	0.002837258
2141	122	377.993	363.42621	0.002645552
2142	122.05	393.454	369.3429	0.002541593
2143	122.1	382.938	365.10843	0.002611389
2144	122.15	372.915	353.84048	0.002681576
2145	122.2	350.922	340.2564	0.002849636
2146	122.25	335.472	329.13047	0.002980875
2147	122.3	331.362	324.64174	0.003017848
2148	122.35	338.731	330.324	0.002952195
2149	122.4	356.403	349.15423	0.002805813
2150	122.45	387.769	383.50358	0.002578855
2151	122.5	428.571	434.87761	0.002333336
2152	122.55	489.093	503.4291	0.002044601
2153	122.6	559.789	587.21942	0.001786387
2154	122.65	664.829	681.16329	0.001504146
2155	122.7	775.479	775.86603	0.001289526
2156	122.75	879.502	857.7447	0.001137007
2157	122.8	951.939	912.84305	0.001050487
2158	122.85	973.015	933.41901	0.001027733
2159	122.9	963.237	920.68522	0.001038166
2160	122.95	931.476	880.74683	0.001073565
2161	123	876.783	819.81932	0.001140533
2162	123.05	804.263	743.64199	0.001243374
2163	123.1	695.273	659.11015	0.001438284
2164	123.15	596.399	573.9762	0.00167673
2165	123.2	506.029	494.87595	0.001976171
2166	123.25	440.051	426.07485	0.002272464
2167	123.3	378.736	369.3697	0.002640362
2168	123.35	330.879	324.68644	0.003022253
2169	123.4	300.32	290.80727	0.003329782
2170	123.45	270.384	265.97472	0.003698444
2171	123.5	253.31	248.31595	0.003947732
2172	123.55	239.138	236.10981	0.004181686
2173	123.6	227.288	227.93477	0.004399704
2174	123.65	215.421	222.68886	0.004642073
2175	123.7	215.286	219.61552	0.004644984
2176	123.75	220.005	218.2428	0.004545351
2177	123.8	213.734	218.33823	0.004678713
2178	123.85	218.302	219.88376	0.00458081
2179	123.9	225.717	223.08472	0.004430326
2180	123.95	236.786	228.41907	0.004223223
2181	124	253.05	236.72255	0.003951788
2182	124.05	261.526	249.28958	0.003823712
2183	124.1	277.467	267.95159	0.003604032
2184	124.15	304.188	295.0676	0.003287441
2185	124.2	338.778	333.35764	0.002951786
2186	124.25	384.2	385.52231	0.002602811
2187	124.3	435.946	453.6336	0.002293862
2188	124.35	509.33	538.32834	0.001963364
2189	124.4	597.801	637.83207	0.001672797
2190	124.45	711.693	746.78624	0.0014051
2191	124.5	834.211	854.98127	0.001198737
2192	124.55	955.064	947.00288	0.00104705
2193	124.6	1050.966	1005.21767	0.000951506
2194	124.65	1073.887	1017.00801	0.000931197
2195	124.7	1056.387	981.11625	0.000946623
2196	124.75	1002.074	907.0103	0.00099793
2197	124.8	868.946	809.28004	0.001150819
2198	124.85	737.021	702.52322	0.001356813
2199	124.9	608.438	598.48783	0.001643553
2200	124.95	511.208	505.00569	0.001956151
2201	125	424.967	426.12908	0.002353124
2202	125.05	365.424	362.89956	0.002736547
2203	125.1	318.555	314.30737	0.003139175
2204	125.15	283.325	278.19593	0.003529516
2205	125.2	253.461	251.99475	0.00394538
2206	125.25	231.901	233.22696	0.004312185
2207	125.3	219.961	219.79049	0.00454626
2208	125.35	211.358	210.05949	0.004731309
2209	125.4	204.217	202.86668	0.004896752
2210	125.45	194.482	197.42626	0.005141864
2211	125.5	195.943	193.24146	0.005103525
2212	125.55	187.741	190.02227	0.005326487
2213	125.6	180.881	187.62305	0.005528497
2214	125.65	182.754	185.99853	0.005471836
2215	125.7	189.749	185.17184	0.00527012
2216	125.75	187.655	185.20645	0.005328928
2217	125.8	185.903	186.17589	0.005379149
2218	125.85	186.862	188.12818	0.005351543
2219	125.9	189.53	191.04483	0.00527621
2220	125.95	205.382	194.79483	0.004868976
2221	126	189.956	199.0812	0.005264377
2222	126.05	200.293	203.3839	0.004992686
2223	126.1	201.792	206.94295	0.004955598
2224	126.15	205.908	208.89329	0.004856538
2225	126.2	207.492	208.60613	0.004819463
2226	126.25	209.392	206.0144	0.004775732
2227	126.3	211.824	201.60578	0.0047209
2228	126.35	201.605	196.13134	0.004960194
2229	126.4	191.86	190.31954	0.005212134
2230	126.45	180.263	184.73199	0.00554745
2231	126.5	183.845	179.72941	0.005439365
2232	126.55	182.371	175.49169	0.005483328
2233	126.6	181.911	172.05888	0.005497194
2234	126.65	175.073	169.37646	0.005711903
2235	126.7	171.194	167.33679	0.005841326
2236	126.75	175.774	165.81272	0.005689124
2237	126.8	169.518	164.68131	0.005899079
2238	126.85	164.234	163.83757	0.006088873
2239	126.9	164.797	163.19958	0.006068072
2240	126.95	172.745	162.70785	0.00578888
2241	127	169.955	162.29593	0.00588391
2242	127.05	162.896	161.98102	0.006138886
2243	127.1	164.761	161.73342	0.006069397
2244	127.15	161.123	161.53685	0.006206439
2245	127.2	167.985	161.38312	0.005952912
2246	127.25	163.844	161.26742	0.006103367
2247	127.3	164.077	161.18646	0.006094699
2248	127.35	159.102	161.13791	0.006285276
2249	127.4	163.868	161.12011	0.006102473
2250	127.45	166.473	161.13195	0.00600698
2251	127.5	165.977	161.17271	0.006024931
2252	127.55	162.695	161.24205	0.00614647
2253	127.6	161.96	161.33995	0.006174364
2254	127.65	163.852	161.46669	0.006103069
2255	127.7	163.035	161.62287	0.006133652
2256	127.75	163.053	161.80937	0.006132975
2257	127.8	161.583	162.02736	0.00618877
2258	127.85	158.659	162.27836	0.006302826
2259	127.9	160.274	162.5642	0.006239315
2260	127.95	169.116	162.8871	0.005913101
2261	128	164.498	163.24967	0.006079101
2262	128.05	170.458	163.65499	0.005866548
2263	128.1	168.795	164.10666	0.005924346
2264	128.15	166.701	164.60885	0.005998764
2265	128.2	171.65	165.16644	0.005825808
2266	128.25	167.827	165.78508	0.005958517
2267	128.3	171.871	166.47136	0.005818317
2268	128.35	165.058	167.23295	0.006058476
2269	128.4	172.484	168.07884	0.005797639
2270	128.45	169.687	169.01954	0.005893203
2271	128.5	170.716	170.06743	0.005857682
2272	128.55	167.288	171.23717	0.005977715
2273	128.6	173.743	172.54616	0.005755628
2274	128.65	181.42	174.01534	0.005512071
2275	128.7	178.861	175.67013	0.005590934
2276	128.75	176.23	177.54212	0.005674403
2277	128.8	188.381	179.67165	0.005308391
2278	128.85	183.691	182.11246	0.005443925
2279	128.9	190.97	184.9396	0.005236425
2280	128.95	196.102	188.26295	0.005099387
2281	129	194.308	192.24931	0.005146468
2282	129.05	197.127	197.15629	0.005072872
2283	129.1	210.937	203.38043	0.004740752
2284	129.15	222.223	211.51881	0.004499984
2285	129.2	227.234	222.4372	0.00440075
2286	129.25	251.456	237.32871	0.003976839
2287	129.3	275.253	257.73656	0.003633021
2288	129.35	307.665	285.50727	0.003250288
2289	129.4	333.963	322.6415	0.002994344
2290	129.45	374.316	371.02285	0.00267154
2291	129.5	422.829	432.02808	0.002365022
2292	129.55	491.7	506.04206	0.00203376
2293	129.6	573.759	591.89737	0.001742892
2294	129.65	646.792	686.22516	0.001546092
2295	129.7	753.435	782.71617	0.001327255
2296	129.75	845.096	871.58101	0.001183298
2297	129.8	913.51	940.2228	0.001094679
2298	129.85	937.723	976.43079	0.001066413
2299	129.9	927.578	973.38922	0.001078076
2300	129.95	892.018	932.7371	0.001121054
2301	130	810.726	863.07887	0.001233462
2302	130.05	735.394	775.90548	0.001359815
2303	130.1	640.787	682.15916	0.001560581
2304	130.15	556.547	590.51441	0.001796793
2305	130.2	489.041	506.8963	0.002044818
2306	130.25	427.37	434.64265	0.002339893
2307	130.3	375.343	374.97015	0.00266423
2308	130.35	329.336	327.54997	0.003036413
2309	130.4	304.812	291.07455	0.003280711
2310	130.45	278.588	263.74819	0.00358953
2311	130.5	260.006	243.66618	0.003846065
2312	130.55	245.736	229.06903	0.004069408
2313	130.6	236.68	218.4794	0.004225114
2314	130.65	228.813	210.7454	0.004370381
2315	130.7	220.142	205.02145	0.004542523
2316	130.75	212.086	200.7169	0.004715068
2317	130.8	215.165	197.43518	0.004647596
2318	130.85	209.087	194.91791	0.004782698
2319	130.9	209.349	193.00026	0.004776713
2320	130.95	204.271	191.57231	0.004895458
2321	131	200.277	190.58245	0.004993085
2322	131.05	202.116	189.99135	0.004947654
2323	131.1	203.269	189.78418	0.004919589
2324	131.15	200.034	189.96696	0.00499915
2325	131.2	194.885	190.56975	0.005131231
2326	131.25	207.65	191.65471	0.004815796
2327	131.3	207.087	193.33016	0.004828888
2328	131.35	203.901	195.77102	0.004904341
2329	131.4	207.531	199.2452	0.004818557
2330	131.45	218.282	204.14331	0.00458123
2331	131.5	231.642	211.00559	0.004317006
2332	131.55	241.821	220.53626	0.00413529
2333	131.6	262.646	233.59198	0.003807406
2334	131.65	268.759	251.13098	0.003720806
2335	131.7	290.14	274.11272	0.003446612
2336	131.75	320.843	303.34596	0.003116789
2337	131.8	346.866	339.29236	0.002882958
2338	131.85	383.381	381.8364	0.002608371
2339	131.9	431.832	430.0246	0.002315715
2340	131.95	479.168	481.76431	0.002086951
2341	132	522.417	533.50317	0.00191418
2342	132.05	575.927	580.0846	0.001736331
2343	132.1	618.852	615.27139	0.001615895
2344	132.15	649.722	633.36831	0.00153912
2345	132.2	660.426	631.43749	0.001514174
2346	132.25	639.52	610.47057	0.001563673
2347	132.3	597.944	574.63962	0.001672397
2348	132.35	540.998	529.5166	0.001848436
2349	132.4	480.967	480.55982	0.002079145
2350	132.45	419.415	432.31361	0.002384273
2351	132.5	390.905	388.14215	0.002558166
2352	132.55	347.785	350.25299	0.00287534
2353	132.6	318.656	319.86585	0.00313818
2354	132.65	301.761	297.43494	0.003313881
2355	132.7	287.874	282.88132	0.003473742
2356	132.75	275.613	275.81619	0.003628276
2357	132.8	276.598	275.59687	0.003615355
2358	132.85	274.111	281.43728	0.003648157
2359	132.9	288.286	292.39976	0.003468778
2360	132.95	302.376	307.33714	0.003307141
2361	133	330.732	324.78384	0.003023596
2362	133.05	355.484	342.82691	0.002813066
2363	133.1	372.983	359.05675	0.002681087
2364	133.15	394.399	370.79823	0.002535503
2365	133.2	409.753	375.75735	0.002440495
2366	133.25	398.926	372.82164	0.002506731
2367	133.3	384.105	362.41936	0.002603455
2368	133.35	353.436	346.17829	0.002829367
2369	133.4	327.398	326.2431	0.003054386
2370	133.45	298.286	304.70811	0.003352487
2371	133.5	271.268	283.31204	0.003686391
2372	133.55	250.045	263.32823	0.00399928
2373	133.6	224.61	245.56313	0.004452162
2374	133.65	216.764	230.41329	0.004613312
2375	133.7	210.369	217.95163	0.004753552
2376	133.75	194.625	208.02246	0.005138086
2377	133.8	182.431	200.3309	0.005481525
2378	133.85	183.422	194.51712	0.005451909
2379	133.9	182.438	190.19925	0.005481314
2380	133.95	175.843	187.07759	0.005686891
2381	134	173.705	184.85923	0.005756887
2382	134.05	173.069	183.32021	0.005778042
2383	134.1	171.914	182.29337	0.005816862
2384	134.15	173.995	181.66078	0.005747292
2385	134.2	174.587	181.34296	0.005727803
2386	134.25	173.765	181.28976	0.005754899
2387	134.3	169.409	181.47304	0.005902874
2388	134.35	171.609	181.8818	0.0058272
2389	134.4	172.98	182.51975	0.005781015
2390	134.45	173.091	183.40532	0.005777308
2391	134.5	172.754	184.57252	0.005788578
2392	134.55	173.301	186.08092	0.005770307
2393	134.6	180.878	188.01596	0.005528588
2394	134.65	182.337	190.49886	0.00548435
2395	134.7	179.856	193.69485	0.005560004
2396	134.75	185.528	197.81885	0.005390022
2397	134.8	188.983	203.13674	0.005291481
2398	134.85	203.968	209.95945	0.00490273
2399	134.9	209.076	218.628	0.00478295
2400	134.95	216.93	229.48986	0.004609782
2401	135	236.197	242.86351	0.004233754
2402	135.05	256.612	259.00095	0.003896934
2403	135.1	269.559	278.04518	0.003709763
2404	135.15	305.766	299.98242	0.003270475
2405	135.2	326.691	324.58395	0.003060996
2406	135.25	355.255	351.33786	0.002814879
2407	135.3	385.718	379.40554	0.002592568
2408	135.35	417.342	407.70031	0.002396116
2409	135.4	443.578	435.19694	0.002254395
2410	135.45	468.09	461.4117	0.002136341
2411	135.5	486.735	486.72939	0.002054506
2412	135.55	494.018	512.27154	0.002024218
2413	135.6	517.88	539.36482	0.001930949
2414	135.65	527.194	568.91521	0.001896835
2415	135.7	531.498	600.89474	0.001881475
2416	135.75	555.878	633.97238	0.001798956
2417	135.8	599.907	665.31876	0.001666925
2418	135.85	628.757	690.77468	0.00159044
2419	135.9	658.745	705.63265	0.001518038
2420	135.95	670.582	706.25168	0.001491242
2421	136	659.32	691.31782	0.001516714
2422	136.05	632.163	662.22188	0.00158187
2423	136.1	597.037	622.30288	0.001674938
2424	136.15	548.898	575.69079	0.001821832
2425	136.2	502.067	526.39969	0.001991766
2426	136.25	452.401	477.83714	0.002210428
2427	136.3	421.927	432.61399	0.002370078
2428	136.35	385.525	392.52576	0.002593866
2429	136.4	344.985	358.62992	0.002898677
2430	136.45	314.489	331.37874	0.003179761
2431	136.5	303.981	310.77565	0.003289679
2432	136.55	302.219	296.53015	0.003308859
2433	136.6	295.271	288.19465	0.003386719
2434	136.65	287.003	285.27363	0.003484284
2435	136.7	282.517	287.29961	0.00353961
2436	136.75	286.07	293.8733	0.003495648
2437	136.8	296.279	304.66817	0.003375197
2438	136.85	308.437	319.39785	0.003242153
2439	136.9	333.545	337.76548	0.002998096
2440	136.95	356.991	359.43853	0.002801191
2441	137	369.812	384.07088	0.002704077
2442	137.05	394.847	411.38427	0.002532627
2443	137.1	423.398	441.21742	0.002361844
2444	137.15	445.587	473.43835	0.002244231
2445	137.2	466.724	507.72861	0.002142594
2446	137.25	497.033	543.30352	0.002011939
2447	137.3	513.973	578.74808	0.001945627
2448	137.35	559.979	611.92306	0.001785781
2449	137.4	604.454	639.98939	0.001654386
2450	137.45	640.433	659.71083	0.001561444
2451	137.5	679.355	668.18243	0.001471984
2452	137.55	685.31	663.79733	0.001459194
2453	137.6	687.107	646.8771	0.001455377
2454	137.65	663.894	619.54648	0.001506265
2455	137.7	612.704	585.03425	0.001632109
2456	137.75	568.654	546.89997	0.001758539
2457	137.8	518.67	508.50258	0.001928008
2458	137.85	469.769	472.73733	0.002128706
2459	137.9	425.624	441.9419	0.002349492
2460	137.95	388.936	417.8962	0.002571117
2461	138	369.749	401.86182	0.002704537
2462	138.05	358.731	394.63818	0.002787604
2463	138.1	356.052	396.61398	0.002808579
2464	138.15	374.86	407.80378	0.002667663
2465	138.2	385.789	427.85192	0.00259209
2466	138.25	399.817	456.00263	0.002501144
2467	138.3	428.254	491.07187	0.002335063
2468	138.35	471.427	531.35348	0.002121219
2469	138.4	512.762	574.51027	0.001950223
2470	138.45	562.952	617.50046	0.00177635
2471	138.5	603.395	656.68876	0.001657289
2472	138.55	652.777	688.33738	0.001531917
2473	138.6	687.598	709.50197	0.001454338
2474	138.65	713.54	718.96135	0.001401463
2475	138.7	690.74	717.58186	0.001447723
2476	138.75	703.466	707.9946	0.001421533
2477	138.8	686.396	693.65258	0.001456885
2478	138.85	662.735	678.04708	0.001508899
2479	138.9	633.929	664.11789	0.001577464
2480	138.95	606.029	653.90855	0.001650086
2481	139	605.645	648.3695	0.001651132
2482	139.05	600.968	647.24713	0.001663982
2483	139.1	606.112	649.06392	0.00164986
2484	139.15	615.949	651.2696	0.001623511
2485	139.2	633.879	650.68814	0.001577588
2486	139.25	655.918	644.29163	0.001524581
2487	139.3	655.033	630.05892	0.001526641
2488	139.35	631.893	607.48536	0.001582546
2489	139.4	611.501	577.50021	0.00163532
2490	139.45	570.373	541.96182	0.001753239
2491	139.5	534.57	503.08588	0.001870662
2492	139.55	476.801	463.0287	0.002097311
2493	139.6	430.748	423.65404	0.002321543
2494	139.65	388.103	386.42716	0.002576636
2495	139.7	352.834	352.38409	0.002834194
2496	139.75	317.993	322.14876	0.003144723
2497	139.8	285.918	295.98311	0.003497506
2498	139.85	266.725	273.85725	0.00374918
2499	139.9	256.73	255.52737	0.003895143
2500	139.95	237.101	240.61128	0.004217612
2501	140	223.124	228.65527	0.004481813
2502	140.05	210.624	219.1882	0.004747797
2503	140.1	205.117	211.76146	0.004875266
2504	140.15	203.728	205.97512	0.004908505
2505	140.2	190.342	201.49199	0.005253701
2506	140.25	185.63	198.04249	0.00538706
2507	140.3	176.079	195.41332	0.005679269
2508	140.35	180.442	193.45962	0.005541947
2509	140.4	182.469	192.12332	0.005480383
2510	140.45	178.574	191.35555	0.005599919
2511	140.5	181.472	191.16358	0.005510492
2512	140.55	176.619	191.59797	0.005661905
2513	140.6	176.402	192.75057	0.00566887
2514	140.65	178.767	194.75136	0.005593874
2515	140.7	182.61	197.76301	0.005476151
2516	140.75	181.18	201.97276	0.005519373
2517	140.8	185.189	207.57985	0.005399889
2518	140.85	191.455	214.77779	0.005223159
2519	140.9	191.036	223.73169	0.005234615
2520	140.95	194.409	234.55136	0.005143795
2521	141	210.151	247.26118	0.004758483
2522	141.05	231.285	261.76753	0.00432367
2523	141.1	252.042	277.82353	0.003967593
2524	141.15	272.488	294.99007	0.003669886
2525	141.2	286.494	312.59507	0.003490474
2526	141.25	321.028	329.70284	0.003114993
2527	141.3	337.039	345.12628	0.002967016
2528	141.35	376.953	357.50166	0.002652851
2529	141.4	403.766	365.62245	0.002476682
2530	141.45	404.5	368.5902	0.002472188
2531	141.5	405.516	366.12255	0.002465994
2532	141.55	390.271	358.5802	0.002562322
2533	141.6	365.815	346.81373	0.002733622
2534	141.65	347.215	331.92997	0.00288006
2535	141.7	310.286	315.08285	0.003222833
2536	141.75	277.051	297.33871	0.003609444
2537	141.8	264.246	279.60147	0.003784352
2538	141.85	242.896	262.58342	0.004116988
2539	141.9	233.195	246.79947	0.004288257
2540	141.95	218.164	232.57829	0.004583708
2541	142	202.963	220.08496	0.004927006
2542	142.05	188.433	209.3509	0.005306926
2543	142.1	184.967	200.30642	0.00540637
2544	142.15	180.639	192.81249	0.005535903
2545	142.2	177.792	186.68912	0.00562455
2546	142.25	172.904	181.739	0.005783556
2547	142.3	174.294	177.76559	0.005737432
2548	142.35	173.978	174.58584	0.005747853
2549	142.4	175.261	172.03778	0.005705776
2550	142.45	173.008	169.98411	0.00578008
2551	142.5	169.267	168.31245	0.005907826
2552	142.55	170.735	166.93367	0.00585703
2553	142.6	174.708	165.77884	0.005723836
2554	142.65	171.809	164.79581	0.005820417
2555	142.7	169.977	163.94574	0.005883149
2556	142.75	178.104	163.20006	0.005614697
2557	142.8	169.458	162.53782	0.005901167
2558	142.85	166.115	161.94363	0.006019926
2559	142.9	171.084	161.40609	0.005845082
2560	142.95	167.653	160.91659	0.005964701
2561	143	172.925	160.46852	0.005782854
2562	143.05	167.737	160.05667	0.005961714
2563	143.1	161.932	159.6768	0.006175432
2564	143.15	160.418	159.32545	0.006233714
2565	143.2	163.639	158.99965	0.006111013
2566	143.25	162.17	158.69691	0.006166369
2567	143.3	164.885	158.41504	0.006064833
2568	143.35	158.451	158.15214	0.006311099
2569	143.4	162.465	157.90652	0.006155172
2570	143.45	155.811	157.67671	0.006418032
2571	143.5	170.866	157.46138	0.005852539
2572	143.55	168.116	157.25936	0.005948274
2573	143.6	161.539	157.0696	0.006190456
2574	143.65	163.611	156.89114	0.006112058
2575	143.7	169.461	156.72314	0.005901063
2576	143.75	162.709	156.56015	0.006145942
2577	143.8	159.018	156.40729	0.006288596
2578	143.85	165.179	156.26507	0.006054038
2579	143.9	168.932	156.1314	0.005919542
2580	143.95	162.396	156.00543	0.006157787
2581	144	166.076	155.88642	0.00602134
2582	144.05	167.483	155.77378	0.005970755
2583	144.1	175.276	155.66712	0.005705288
2584	144.15	174.712	155.56608	0.005723705
2585	144.2	169.35	155.47031	0.005904931
2586	144.25	170.836	155.37953	0.005853567
2587	144.3	171.809	155.29343	0.005820417
2588	144.35	173.527	155.21176	0.005762792
2589	144.4	173.974	155.13429	0.005747985
2590	144.45	172.407	155.06078	0.005800229
2591	144.5	176.949	154.99103	0.005651346
2592	144.55	172.829	154.92485	0.005786066
2593	144.6	168.728	154.86207	0.005926699
2594	144.65	178.312	154.8025	0.005608148
2595	144.7	176.02	154.746	0.005681173
2596	144.75	172.536	154.69243	0.005795892
2597	144.8	184.791	154.64165	0.005411519
2598	144.85	184.991	154.57316	0.005405668
2599	144.9	191.842	154.51863	0.005212623
2600	144.95	195.21	154.47186	0.005122688
2601	145	195.117	154.4296	0.00512513



_refine_ls_goodness_of_fit_all
1.91
_journal_year
2009
_journal_page_last
299
_symmetry_space_group_name_H-M
'R 3 c'
_pd_char_colour
white
_cell_angle_beta
90
_pd_spec_mount_mode
reflection
_cell_angle_alpha
90
_diffrn_radiation_monochromator
'Ge [115]'
_chemical_formula_sum
'K0.05 Na0.95 Nb1 O3'
_chemical_formula_structural
'K Na (Nb O3)'
_journal_page_first
291
_chemical_formula_weight
164.71
_pd_proc_info_excluded_regions
'145-160\% 2\q'
_pd_meas_2theta_range_max
160
_diffrn_measurement_device_type
D2B
_symmetry_cell_setting
trigonal
_diffrn_ambient_temperature
250
_journal_coeditor_code
WF5039
_pd_meas_2theta_range_inc
0.05
_pd_spec_size_axial
20
_journal_name_full
'Acta Crystallographica, Section B'
_journal_volume
65
_cell_volume
364.826(8)
_journal_issue
3
_pd_spec_mounting
'Vanadium can packed with powder'
_pd_spec_shape
cylinder
_pd_proc_ls_prof_R_factor
0.050
_diffrn_radiation_wavelength
1.60
_pd_spec_size_equat
50
_pd_block_diffractogram_id
KNN05at250K
_pd_spec_size_thick
20
_pd_meas_scan_method
step
_diffrn_radiation_type
Neutron
_journal_paper_category
FA
_journal_date_accepted
2009-03-25
_pd_proc_ls_prof_wR_factor
0.067
_cell_angle_gamma
120
_refine_ls_number_parameters
24
_computing_structure_refinement
'TOPAS Academic'
_cell_formula_units_Z
6
_cell_length_a
5.52922(5)
_cell_length_b
5.52922(5)
_pd_meas_number_of_points
2601
_cell_length_c
13.77931(17)
_chemical_name_systematic
'Sodium Potassium Niobate'
_journal_date_recd_electronic
2008-12-13
_pd_meas_2theta_range_min
0.10
loop_
_symmetry_equiv_pos_as_xyz

;-x+y, -x, z
;

;-x+y, y, z+1/2
;

;-x+y+1/3, -x-1/3, z-1/3
;

;-x+y+1/3, y-1/3, z+1/6
;

;-x+y-1/3, -x+1/3, z+1/3
;

;-x+y-1/3, y+1/3, z-1/6
;

;-y, -x, z+1/2
;

;-y, x-y, z
;

;-y+1/3, -x-1/3, z+1/6
;

;-y+1/3, x-y-1/3, z-1/3
;

;-y-1/3, -x+1/3, z-1/6
;

;-y-1/3, x-y+1/3, z+1/3
;

;x, y, z
;

;x, x-y, z+1/2
;

;x+1/3, y-1/3, z-1/3
;

;x+1/3, x-y-1/3, z+1/6
;

;x-1/3, y+1/3, z+1/3
;

;x-1/3, x-y+1/3, z-1/6
;

loop_
_atom_type_symbol
Na1+
K1+
Nb5+
O2-

loop_
_atom_site_type_symbol
_atom_site_label
_atom_site_fract_x
_atom_site_fract_y
_atom_site_fract_z
_atom_site_occupancy
Na+1 Na1 0 0 0.2697(2) 0.95
K+1 K1 0 0 0.2697(2) 0.05
Nb+5 Nb1 0 0 0.01518(11) 1
O-2 O1 0.1092(2) 0.3370(4) 0.08333 1

