data_KNN30at160K
_pd_block_id     KNN30at160K
_pd_proc_2theta_range_min  15 
_pd_proc_2theta_range_max 145
_pd_proc_ls_background_function   'Chebychev with six coefficients' 

loop_
      
_pd_data_point_id                           
      
_pd_meas_2theta_corrected     
_pd_meas_intensity_total                     
      
_pd_calc_intensity_total                     
      
_pd_proc_ls_weight
1	15	65.361	61.02646	0.015299644
2	15.05	64.828	61.02849	0.015425433
3	15.1	59.008	61.03044	0.016946855
4	15.15	59.133	61.03231	0.016911031
5	15.2	60.574	61.03411	0.016508733
6	15.25	60.151	61.03583	0.016624828
7	15.3	61.718	61.03747	0.016202729
8	15.35	61.018	61.03904	0.016388607
9	15.4	60.926	61.04054	0.016413354
10	15.45	60.357	61.04197	0.016568087
11	15.5	62.116	61.04333	0.016098912
12	15.55	58.875	61.04461	0.016985138
13	15.6	61.177	61.04583	0.016346012
14	15.65	63.852	61.04698	0.015661217
15	15.7	59.317	61.04806	0.016858573
16	15.75	58.866	61.04908	0.016987735
17	15.8	57.957	61.05003	0.017254171
18	15.85	57.911	61.05091	0.017267877
19	15.9	60.686	61.05174	0.016478265
20	15.95	59.595	61.0525	0.016779931
21	16	64.854	61.0532	0.015419249
22	16.05	63.282	61.05384	0.015802282
23	16.1	58.683	61.05443	0.01704071
24	16.15	61.636	61.05495	0.016224285
25	16.2	64.846	61.05542	0.015421152
26	16.25	59.283	61.05584	0.016868242
27	16.3	57.368	61.0562	0.017431321
28	16.35	59.823	61.05651	0.016715979
29	16.4	58.865	61.05677	0.016988023
30	16.45	61.087	61.05698	0.016370095
31	16.5	62.362	61.05715	0.016035406
32	16.55	59.427	61.05726	0.016827368
33	16.6	57.676	61.05733	0.017338234
34	16.65	57.87	61.05736	0.017280111
35	16.7	59.636	61.05735	0.016768395
36	16.75	61.23	61.0573	0.016331863
37	16.8	63.615	61.05721	0.015719563
38	16.85	59.581	61.05708	0.016783874
39	16.9	59.089	61.05692	0.016923624
40	16.95	60.694	61.05673	0.016476093
41	17	62.415	61.0565	0.01602179
42	17.05	57.619	61.05625	0.017355386
43	17.1	55.183	61.05597	0.018121523
44	17.15	63.82	61.05567	0.015669069
45	17.2	65.381	61.05534	0.015294963
46	17.25	63.808	61.05499	0.015672016
47	17.3	61.655	61.05463	0.016219285
48	17.35	60.955	61.05425	0.016405545
49	17.4	60.005	61.05385	0.016665278
50	17.45	62.134	61.05345	0.016094248
51	17.5	59.653	61.05304	0.016763616
52	17.55	62.986	61.05263	0.015876544
53	17.6	60.97	61.05221	0.016401509
54	17.65	58.885	61.0518	0.016982254
55	17.7	59.939	61.05139	0.016683628
56	17.75	63.004	61.05099	0.015872008
57	17.8	60.951	61.05059	0.016406622
58	17.85	57.673	61.05022	0.017339136
59	17.9	58.1	61.04986	0.017211704
60	17.95	60.603	61.04953	0.016500833
61	18	62.292	61.04922	0.016053426
62	18.05	64.153	61.04895	0.015587736
63	18.1	59.751	61.04871	0.016736122
64	18.15	60.022	61.04851	0.016660558
65	18.2	62.044	61.04836	0.016117594
66	18.25	59.945	61.04825	0.016681958
67	18.3	62.573	61.0482	0.015981334
68	18.35	60.944	61.04822	0.016408506
69	18.4	57.065	61.0483	0.017523876
70	18.45	60.273	61.04845	0.016591177
71	18.5	61.613	61.04869	0.016230341
72	18.55	61.442	61.04901	0.016275512
73	18.6	62.807	61.04942	0.015921792
74	18.65	62.316	61.04994	0.016047243
75	18.7	55.957	61.05056	0.017870865
76	18.75	57.025	61.05131	0.017536168
77	18.8	57.138	61.05218	0.017501488
78	18.85	58.459	61.05319	0.017106006
79	18.9	57.572	61.05434	0.017369555
80	18.95	58.766	61.05566	0.017016642
81	19	60.303	61.05714	0.016582923
82	19.05	62.365	61.05879	0.016034635
83	19.1	61.879	61.06065	0.016160571
84	19.15	62.673	61.06271	0.015955834
85	19.2	60.267	61.06498	0.016592829
86	19.25	58.284	61.0675	0.017157367
87	19.3	58.136	61.07026	0.017201046
88	19.35	61.299	61.07329	0.01631348
89	19.4	59.468	61.07661	0.016815766
90	19.45	61.861	61.08023	0.016165274
91	19.5	64.293	61.08418	0.015553793
92	19.55	61.714	61.08848	0.016203779
93	19.6	66.494	61.09315	0.015038951
94	19.65	64.656	61.09821	0.015466469
95	19.7	63.631	61.1037	0.01571561
96	19.75	65.229	61.10965	0.015330604
97	19.8	59.566	61.11607	0.016788101
98	19.85	66.717	61.12302	0.014988684
99	19.9	62.394	61.13052	0.016027182
100	19.95	59.291	61.13861	0.016865966
101	20	60.57	61.14734	0.016509823
102	20.05	61.424	61.15675	0.016280281
103	20.1	65.181	61.16689	0.015341894
104	20.15	60.547	61.17781	0.016516095
105	20.2	60.579	61.18958	0.016507371
106	20.25	67.704	61.20225	0.014770176
107	20.3	63.458	61.2159	0.015758454
108	20.35	61.598	61.23059	0.016234293
109	20.4	62.447	61.24641	0.01601358
110	20.45	60.304	61.26346	0.016582648
111	20.5	58.494	61.28182	0.017095771
112	20.55	58.746	61.3016	0.017022436
113	20.6	58.491	61.32293	0.017096647
114	20.65	62.575	61.34594	0.015980823
115	20.7	59.672	61.37075	0.016758279
116	20.75	56.362	61.39759	0.017742451
117	20.8	59.297	61.42663	0.01686426
118	20.85	59.375	61.45812	0.016842105
119	20.9	58.087	61.4923	0.017215556
120	20.95	55.744	61.52949	0.01793915
121	21	56.795	61.57022	0.017607184
122	21.05	59.692	61.61606	0.016752664
123	21.1	58.206	61.66294	0.017180359
124	21.15	60.232	61.71392	0.01660247
125	21.2	57.322	61.76945	0.017445309
126	21.25	57.921	61.83003	0.017264895
127	21.3	61.213	61.89621	0.016336399
128	21.35	60.747	61.96864	0.016461718
129	21.4	62.528	62.04807	0.015992835
130	21.45	62.888	62.13533	0.015901285
131	21.5	61.17	62.23143	0.016347883
132	21.55	60.169	62.3375	0.016619854
133	21.6	65.879	62.45487	0.015179344
134	21.65	64.459	62.58512	0.015513737
135	21.7	63.558	62.73011	0.015733661
136	21.75	65.644	62.89205	0.015233685
137	21.8	68.982	63.07365	0.014496535
138	21.85	71.888	63.27837	0.013910527
139	21.9	75.176	63.51083	0.013302118
140	21.95	75.83	63.77789	0.013187393
141	22	75.882	64.09059	0.013178356
142	22.05	76.78	64.46816	0.013024225
143	22.1	81.846	64.94517	0.012218068
144	22.15	75.2	65.58328	0.013297872
145	22.2	81.698	66.48916	0.012240202
146	22.25	90.189	67.83843	0.011087827
147	22.3	94.496	69.90421	0.010582459
148	22.35	95.301	73.08625	0.010493069
149	22.4	102.196	77.93511	0.009785119
150	22.45	109.394	85.1674	0.009141269
151	22.5	116.303	95.6716	0.00859823
152	22.55	124.414	110.50925	0.008037681
153	22.6	139.347	130.91941	0.00717633
154	22.65	151.729	158.3282	0.006590698
155	22.7	176.878	194.34627	0.005653614
156	22.75	199.659	240.71499	0.00500854
157	22.8	235.615	299.05213	0.004244212
158	22.85	287.129	370.3274	0.003482755
159	22.9	350.723	454.02763	0.002851253
160	22.95	423.896	547.16688	0.002359069
161	23	521.017	643.50181	0.001919323
162	23.05	623.401	733.42789	0.001604104
163	23.1	743.637	804.94283	0.001344742
164	23.15	848.079	845.81425	0.001179135
165	23.2	883.793	846.61684	0.001131487
166	23.25	877.581	804.14851	0.001139496
167	23.3	799.972	723.67545	0.001250044
168	23.35	680.852	617.82014	0.001468748
169	23.4	557.789	502.25269	0.001792793
170	23.45	448.137	391.2129	0.00223146
171	23.5	356.456	294.82841	0.002805395
172	23.55	292.582	218.23714	0.003417845
173	23.6	235.795	162.07774	0.004240972
174	23.65	186.47	123.84957	0.005362793
175	23.7	152.609	99.53535	0.006552693
176	23.75	128.141	84.95757	0.007803904
177	23.8	107.14	76.60198	0.009333582
178	23.85	91.357	71.91648	0.010946069
179	23.9	82.168	69.25318	0.012170188
180	23.95	75.219	67.64918	0.013294513
181	24	69.643	66.58812	0.014358945
182	24.05	68.652	65.81179	0.014566218
183	24.1	65.721	65.19692	0.015215837
184	24.15	62.892	64.68506	0.015900273
185	24.2	57.417	64.24694	0.017416445
186	24.25	62.033	63.86614	0.016120452
187	24.3	60.856	63.532	0.016432233
188	24.35	62.997	63.23678	0.015873772
189	24.4	63.306	62.97444	0.015796291
190	24.45	64.19	62.74013	0.015578751
191	24.5	61.489	62.52985	0.016263071
192	24.55	61.654	62.34032	0.016219548
193	24.6	64.664	62.16877	0.015464555
194	24.65	60.728	62.01288	0.016466869
195	24.7	62.364	61.8707	0.016034892
196	24.75	63.18	61.74057	0.015827794
197	24.8	58.791	61.62106	0.017009406
198	24.85	61.137	61.51097	0.016356707
199	24.9	60.863	61.40924	0.016430344
200	24.95	54.192	61.31496	0.018452908
201	25	59.925	61.22735	0.016687526
202	25.05	56.78	61.14573	0.017611835
203	25.1	56.211	61.06948	0.017790112
204	25.15	60.41	60.99809	0.016553551
205	25.2	59.312	60.93109	0.016859995
206	25.25	57.777	60.86807	0.017307925
207	25.3	58.674	60.80866	0.017043324
208	25.35	59.162	60.75254	0.016902742
209	25.4	58.503	60.69943	0.017093141
210	25.45	60.706	60.64906	0.016472836
211	25.5	58.613	60.60121	0.017061062
212	25.55	59.306	60.55567	0.0168617
213	25.6	56.997	60.51226	0.017544783
214	25.65	58.695	60.4708	0.017037226
215	25.7	58.006	60.43115	0.017239596
216	25.75	56.929	60.39317	0.01756574
217	25.8	57.59	60.35673	0.017364126
218	25.85	56.105	60.32173	0.017823723
219	25.9	59.915	60.28805	0.016690311
220	25.95	61.086	60.25561	0.016370363
221	26	58.98	60.22432	0.0169549
222	26.05	59.538	60.1941	0.016795996
223	26.1	58.516	60.16489	0.017089343
224	26.15	58.653	60.13661	0.017049426
225	26.2	57.373	60.10921	0.017429801
226	26.25	59.615	60.08263	0.016774302
227	26.3	61.107	60.05682	0.016364737
228	26.35	60.701	60.03173	0.016474193
229	26.4	60.459	60.00732	0.016540135
230	26.45	62.522	59.98356	0.01599437
231	26.5	60.347	59.96039	0.016570832
232	26.55	61.745	59.9378	0.016195643
233	26.6	58.399	59.91575	0.017123581
234	26.65	60.021	59.8942	0.016660835
235	26.7	56.324	59.87314	0.017754421
236	26.75	59.285	59.85253	0.016867673
237	26.8	56.67	59.83236	0.017646021
238	26.85	59.304	59.81259	0.016862269
239	26.9	59.654	59.79322	0.016763335
240	26.95	57.548	59.77423	0.017376798
241	27	57.639	59.75559	0.017349364
242	27.05	53.827	59.73729	0.018578037
243	27.1	53.219	59.71931	0.018790282
244	27.15	53.916	59.70165	0.01854737
245	27.2	57.079	59.68428	0.017519578
246	27.25	56.36	59.6672	0.01774308
247	27.3	60.563	59.65039	0.016511732
248	27.35	60.627	59.63384	0.016494301
249	27.4	58.751	59.61756	0.017020987
250	27.45	57.067	59.60151	0.017523262
251	27.5	61.907	59.5857	0.016153262
252	27.55	61.007	59.57013	0.016391562
253	27.6	58.979	59.55477	0.016955187
254	27.65	57.924	59.53963	0.017264001
255	27.7	61.72	59.5247	0.016202203
256	27.75	60.788	59.50997	0.016450615
257	27.8	57.601	59.49544	0.01736081
258	27.85	60.596	59.48111	0.016502739
259	27.9	56.237	59.46697	0.017781887
260	27.95	56.555	59.45301	0.017681903
261	28	58.045	59.43924	0.017228013
262	28.05	59.793	59.42565	0.016724366
263	28.1	55.41	59.41224	0.018047284
264	28.15	58.574	59.399	0.017072421
265	28.2	56.37	59.38594	0.017739933
266	28.25	57.113	59.37305	0.017509149
267	28.3	59.443	59.36033	0.016822839
268	28.35	55.902	59.34778	0.017888448
269	28.4	57.318	59.33541	0.017446526
270	28.45	55.406	59.3232	0.018048587
271	28.5	58.027	59.31117	0.017233357
272	28.55	56.647	59.29931	0.017653186
273	28.6	58.667	59.28763	0.017045358
274	28.65	59.883	59.27611	0.01669923
275	28.7	59.126	59.26478	0.016913033
276	28.75	58.811	59.25363	0.017003622
277	28.8	57.357	59.24265	0.017434664
278	28.85	55.672	59.23187	0.017962351
279	28.9	58.676	59.22127	0.017042743
280	28.95	61.402	59.21087	0.016286114
281	29	59.049	59.20066	0.016935088
282	29.05	58.204	59.19066	0.01718095
283	29.1	59.815	59.18086	0.016718214
284	29.15	52.497	59.17128	0.019048708
285	29.2	56.553	59.16192	0.017682528
286	29.25	59.951	59.15279	0.016680289
287	29.3	57.541	59.1439	0.017378912
288	29.35	58.374	59.13525	0.017130914
289	29.4	60.5	59.12686	0.016528926
290	29.45	58.495	59.11873	0.017095478
291	29.5	56.528	59.11088	0.017690348
292	29.55	58.654	59.10332	0.017049136
293	29.6	56.637	59.09606	0.017656302
294	29.65	57.019	59.08916	0.017538014
295	29.7	55.612	59.08378	0.017981731
296	29.75	56.809	59.08091	0.017602845
297	29.8	57.965	59.08186	0.01725179
298	29.85	56.454	59.09024	0.017713537
299	29.9	55.184	59.13339	0.018121195
300	29.95	57.617	59.12915	0.017355989
301	30	61.277	59.12536	0.016319337
302	30.05	61.737	59.12206	0.016197742
303	30.1	55.42	59.11929	0.018044027
304	30.15	56.822	59.11706	0.017598817
305	30.2	53.086	59.11542	0.018837358
306	30.25	59.246	59.11442	0.016878777
307	30.3	56.039	59.11408	0.017844715
308	30.35	55.494	59.11446	0.018019966
309	30.4	58.568	59.11561	0.01707417
310	30.45	61.316	59.11759	0.016308957
311	30.5	59.883	59.12046	0.01669923
312	30.55	56.104	59.12429	0.017824041
313	30.6	58.351	59.12916	0.017137667
314	30.65	56.694	59.13514	0.017638551
315	30.7	59.944	59.14235	0.016682237
316	30.75	58.546	59.15087	0.017080586
317	30.8	56.749	59.16083	0.017621456
318	30.85	59.37	59.17236	0.016843524
319	30.9	56.297	59.18561	0.017762936
320	30.95	56.973	59.20073	0.017552174
321	31	56.722	59.21792	0.017629844
322	31.05	58.812	59.23738	0.017003333
323	31.1	57.188	59.25935	0.017486186
324	31.15	53.666	59.2841	0.018633772
325	31.2	58.615	59.31193	0.017060479
326	31.25	59.9	59.3432	0.016694491
327	31.3	61.085	59.3783	0.016370631
328	31.35	60.807	59.4177	0.016445475
329	31.4	57.693	59.46194	0.017333125
330	31.45	61.579	59.51164	0.016239302
331	31.5	60.876	59.56754	0.016426835
332	31.55	60.424	59.63048	0.016549715
333	31.6	57.687	59.70148	0.017334928
334	31.65	61.664	59.78174	0.016216917
335	31.7	63.704	59.87269	0.015697601
336	31.75	59.792	59.97607	0.016724645
337	31.8	57.541	60.09402	0.017378912
338	31.85	62.634	60.22921	0.015965769
339	31.9	68.161	60.3852	0.014671146
340	31.95	62.011	60.567	0.016126171
341	32	63.425	60.78244	0.015766654
342	32.05	55.55	61.04468	0.0180018
343	32.1	59.262	61.37711	0.01687422
344	32.15	63.347	61.82193	0.015786067
345	32.2	62.818	62.45397	0.015919004
346	32.25	62.533	63.40143	0.015991556
347	32.3	65.24	64.87388	0.01532802
348	32.35	69.673	67.19668	0.014352762
349	32.4	72.06	70.84683	0.013877324
350	32.45	73.487	76.48021	0.013607849
351	32.5	80.996	84.93063	0.012346289
352	32.55	90.38	97.15172	0.011064395
353	32.6	101.088	114.07046	0.009892371
354	32.65	122.549	136.33927	0.008160001
355	32.7	141.697	164.01398	0.007057312
356	32.75	164.27	196.23216	0.006087539
357	32.8	194.837	231.00488	0.005132495
358	32.85	246.18	265.24005	0.004062068
359	32.9	282.292	295.07621	0.003542431
360	32.95	307.236	316.57256	0.003254827
361	33	327.981	326.76396	0.003048957
362	33.05	331.05	324.69795	0.003020692
363	33.1	321.212	311.50333	0.003113209
364	33.15	294.395	289.36417	0.003396797
365	33.2	267.897	260.66668	0.003732778
366	33.25	244.257	227.99208	0.004094048
367	33.3	200.794	194.2857	0.004980228
368	33.35	155.927	162.44288	0.006413257
369	33.4	123.581	134.63235	0.008091859
370	33.45	105.632	112.00297	0.009466828
371	33.5	89.361	94.77162	0.011190564
372	33.55	75.969	82.46061	0.013163264
373	33.6	69.86	74.17996	0.014314343
374	33.65	63.624	68.9018	0.015717339
375	33.7	64.443	65.67375	0.015517589
376	33.75	66.457	63.73872	0.015047324
377	33.8	57.978	62.5651	0.017247922
378	33.85	56.239	61.81732	0.017781255
379	33.9	59.627	61.30216	0.016770926
380	33.95	60.109	60.91641	0.016636444
381	34	58.405	60.60769	0.017121822
382	34.05	58.512	60.34969	0.017090511
383	34.1	57.105	60.12857	0.017511601
384	34.15	55.042	59.93628	0.018167944
385	34.2	60.082	59.76749	0.01664392
386	34.25	59.015	59.61831	0.016944845
387	34.3	59.046	59.4857	0.016935948
388	34.35	60.383	59.36722	0.016560953
389	34.4	57.959	59.26089	0.017253576
390	34.45	56.841	59.16506	0.017592935
391	34.5	57.879	59.07834	0.017277424
392	34.55	54.259	58.99959	0.018430122
393	34.6	63.141	58.92784	0.01583757
394	34.65	60.643	58.86231	0.016489949
395	34.7	58.723	58.8024	0.017029103
396	34.75	62.609	58.74761	0.015972145
397	34.8	57.987	58.69781	0.017245245
398	34.85	61.353	58.65301	0.016299121
399	34.9	58.022	58.60963	0.017234842
400	34.95	58.211	58.56945	0.017178884
401	35	62.291	58.53218	0.016053684
402	35.05	55.668	58.49757	0.017963642
403	35.1	59.944	58.4654	0.016682237
404	35.15	58.238	58.43546	0.017170919
405	35.2	57.609	58.4076	0.017358399
406	35.25	60.189	58.38166	0.016614332
407	35.3	59.762	58.3575	0.016733041
408	35.35	55.161	58.33502	0.01812875
409	35.4	54.545	58.3141	0.018333486
410	35.45	60.33	58.29467	0.016575501
411	35.5	61.663	58.27663	0.01621718
412	35.55	54.87	58.25993	0.018224895
413	35.6	57.996	58.2445	0.017242568
414	35.65	58.642	58.23029	0.017052624
415	35.7	56.569	58.21726	0.017677527
416	35.75	59.229	58.20537	0.016883621
417	35.8	58.067	58.1946	0.017221486
418	35.85	57.642	58.18531	0.017348461
419	35.9	57.234	58.17795	0.017472132
420	35.95	57.034	58.17339	0.017533401
421	36	55.98	58.17802	0.017863523
422	36.05	56.255	58.17398	0.017776198
423	36.1	62.96	58.1696	0.0158831
424	36.15	62.968	58.16646	0.015881082
425	36.2	60.574	58.16502	0.016508733
426	36.25	55.137	58.16584	0.018136641
427	36.3	58.403	58.17172	0.017122408
428	36.35	58.883	58.17891	0.01698283
429	36.4	58.266	58.1811	0.017162668
430	36.45	60.699	58.18446	0.016474736
431	36.5	57.907	58.18904	0.017269069
432	36.55	56.278	58.19487	0.017768933
433	36.6	60.523	58.20202	0.016522644
434	36.65	60.768	58.21054	0.016456029
435	36.7	60.646	58.2205	0.016489134
436	36.75	60.095	58.23199	0.016640319
437	36.8	67.417	58.24507	0.014833054
438	36.85	65.715	58.25987	0.015217226
439	36.9	63.699	58.27647	0.015698834
440	36.95	67.404	58.29501	0.014835915
441	37	63.713	58.31562	0.015695384
442	37.05	66.188	58.33847	0.015108479
443	37.1	62.952	58.36371	0.015885119
444	37.15	63.871	58.39156	0.015656558
445	37.2	64.989	58.42224	0.015387219
446	37.25	62.479	58.45599	0.016005378
447	37.3	59.574	58.49312	0.016785846
448	37.35	60.329	58.53394	0.016575776
449	37.4	59.932	58.57883	0.016685577
450	37.45	59.395	58.62824	0.016836434
451	37.5	60.065	58.68266	0.016648631
452	37.55	62.411	58.74267	0.016022816
453	37.6	62.479	58.80895	0.016005378
454	37.65	60.286	58.88231	0.016587599
455	37.7	59.441	58.96366	0.016823405
456	37.75	58.64	59.05414	0.017053206
457	37.8	58.381	59.15506	0.01712886
458	37.85	63.369	59.26803	0.015780587
459	37.9	59.479	59.39499	0.016812657
460	37.95	62.151	59.53834	0.016089846
461	38	64.409	59.70111	0.015525781
462	38.05	62.483	59.88732	0.016004353
463	38.1	64.096	60.10269	0.015601598
464	38.15	60.148	60.35617	0.016625657
465	38.2	59.76	60.66321	0.016733601
466	38.25	65.822	61.0522	0.015192489
467	38.3	62.686	61.57654	0.015952525
468	38.35	63.917	62.33493	0.01564529
469	38.4	69.282	63.50254	0.014433763
470	38.45	67.311	65.37263	0.014856413
471	38.5	71.328	68.40216	0.01401974
472	38.55	69.664	73.24417	0.014354616
473	38.6	74.526	80.73561	0.013418136
474	38.65	86.255	91.79754	0.011593531
475	38.7	95.78	107.20836	0.010440593
476	38.75	110.234	127.2471	0.009071611
477	38.8	134.814	151.28147	0.007417627
478	38.85	166.255	177.45782	0.006014857
479	38.9	194.147	202.66846	0.005150736
480	38.95	229.944	222.90968	0.004348885
481	39	245.804	234.07919	0.004068282
482	39.05	256.801	233.25336	0.003894066
483	39.1	233.012	220.17901	0.004291624
484	39.15	202.625	197.78101	0.004935225
485	39.2	165.617	170.7873	0.006038027
486	39.25	140.69	143.7533	0.007107826
487	39.3	114.02	119.94324	0.008770391
488	39.35	106.286	101.05589	0.009408577
489	39.4	90.159	87.40938	0.011091516
490	39.45	80.374	78.37494	0.012441834
491	39.5	75.286	72.88136	0.013282682
492	39.55	72.849	69.82645	0.013727024
493	39.6	73.631	68.31406	0.013581236
494	39.65	76.881	67.72755	0.013007115
495	39.7	74.211	67.70209	0.013475091
496	39.75	75.092	68.06223	0.013316998
497	39.8	73.664	68.76976	0.013575152
498	39.85	76.652	69.90274	0.013045974
499	39.9	77.277	71.67163	0.012940461
500	39.95	77.595	74.46889	0.012887428
501	40	85.75	78.94104	0.011661808
502	40.05	92.592	86.05797	0.010800069
503	40.1	96.393	97.13485	0.010374197
504	40.15	108.239	113.7434	0.009238814
505	40.2	118.002	137.44986	0.008474433
506	40.25	146.609	169.36379	0.006820864
507	40.3	184.542	209.59246	0.005418821
508	40.35	228.135	256.83298	0.004383369
509	40.4	284.446	308.37349	0.003515606
510	40.45	351.969	360.63943	0.002841159
511	40.5	422.89	410.2411	0.002364681
512	40.55	465.733	455.44352	0.002147153
513	40.6	503.123	497.66436	0.001987586
514	40.65	534.245	541.2466	0.0018718
515	40.7	563.441	590.01538	0.001774809
516	40.75	649.976	643.02542	0.001538518
517	40.8	721.851	692.83158	0.001385327
518	40.85	788.796	726.8076	0.001267755
519	40.9	825.638	731.02774	0.001211185
520	40.95	800.111	696.43284	0.001249827
521	41	683.646	624.8018	0.001462745
522	41.05	528.238	528.72062	0.001893086
523	41.1	390.573	424.86664	0.002560341
524	41.15	280.286	327.51749	0.003567784
525	41.2	210.981	245.77774	0.004739763
526	41.25	158.233	183.31586	0.006319794
527	41.3	122.102	139.43072	0.008189874
528	41.35	97.615	110.7929	0.010244327
529	41.4	82.317	93.19394	0.012148159
530	41.45	74.799	82.7894	0.013369163
531	41.5	69.637	76.67808	0.014360182
532	41.55	65.731	72.96257	0.015213522
533	41.6	62.242	70.52503	0.016066322
534	41.65	56.633	68.77763	0.017657549
535	41.7	57.13	67.42475	0.017503938
536	41.75	65.432	66.32156	0.015283042
537	41.8	65.274	65.39441	0.015320036
538	41.85	61.637	64.60191	0.016224021
539	41.9	59.928	63.91776	0.016686691
540	41.95	59.179	63.32352	0.016897886
541	42	61.788	62.80706	0.016184372
542	42.05	60.883	62.34693	0.016424946
543	42.1	61.457	61.93844	0.016271539
544	42.15	58.846	61.57879	0.016993508
545	42.2	59.018	61.25779	0.016943983
546	42.25	59.462	60.97063	0.016817463
547	42.3	60.027	60.71295	0.01665917
548	42.35	60.649	60.48107	0.016488318
549	42.4	55.616	60.27188	0.017980437
550	42.45	58.949	60.08276	0.016963816
551	42.5	58.88	59.91145	0.016983696
552	42.55	62.483	59.75603	0.016004353
553	42.6	59.875	59.61485	0.016701461
554	42.65	56.66	59.48648	0.017649135
555	42.7	58.604	59.36966	0.017063682
556	42.75	59.934	59.26334	0.01668502
557	42.8	60.76	59.16656	0.016458196
558	42.85	57.868	59.07852	0.017280708
559	42.9	60.296	58.99848	0.016584848
560	42.95	57.557	58.92581	0.017374081
561	43	59.944	58.85997	0.016682237
562	43.05	61.449	58.80047	0.016273658
563	43.1	59.504	58.74687	0.016805593
564	43.15	58.385	58.6988	0.017127687
565	43.2	55.803	58.65593	0.017920184
566	43.25	59.508	58.61796	0.016804463
567	43.3	60.795	58.58465	0.016448721
568	43.35	59.399	58.55575	0.0168353
569	43.4	62.389	58.53109	0.016028467
570	43.45	61.121	58.5105	0.016360989
571	43.5	58.123	58.49382	0.017204893
572	43.55	62.419	58.48095	0.016020763
573	43.6	61.093	58.47177	0.016368487
574	43.65	65.092	58.46621	0.015362871
575	43.7	61.557	58.46421	0.016245106
576	43.75	62.788	58.46572	0.01592661
577	43.8	64.545	58.4707	0.015493067
578	43.85	67.106	58.47915	0.014901797
579	43.9	67.331	58.49107	0.014852
580	43.95	67.18	58.50647	0.014885383
581	44	67.915	58.52539	0.014724288
582	44.05	71.863	58.54787	0.013915367
583	44.1	72.001	58.57397	0.013888696
584	44.15	69.814	58.60377	0.014323775
585	44.2	70.998	58.63736	0.014084904
586	44.25	68.283	58.67486	0.014644934
587	44.3	68.311	58.71638	0.014638931
588	44.35	68.582	58.76208	0.014581085
589	44.4	62.312	58.81212	0.016048273
590	44.45	66.764	58.86668	0.014978132
591	44.5	71.4	58.92596	0.014005602
592	44.55	66.48	58.99021	0.015042118
593	44.6	60.666	59.05968	0.016483698
594	44.65	61.547	59.13464	0.016247746
595	44.7	59.543	59.21542	0.016794585
596	44.75	59.16	59.30236	0.016903313
597	44.8	61.727	59.39585	0.016200366
598	44.85	63.698	59.4963	0.01569908
599	44.9	62.862	59.6042	0.015907862
600	44.95	60.987	59.72006	0.016396937
601	45	61.361	59.84446	0.016296996
602	45.05	60.885	59.97803	0.016424407
603	45.1	54.264	60.12149	0.018428424
604	45.15	57.443	60.27561	0.017408562
605	45.2	57.776	60.44128	0.017308225
606	45.25	60.419	60.61946	0.016551085
607	45.3	58.649	60.81125	0.017050589
608	45.35	63.601	61.01786	0.015723023
609	45.4	59.551	61.24066	0.016792329
610	45.45	60.901	61.48118	0.016420092
611	45.5	58.452	61.74114	0.017108054
612	45.55	59.056	62.0225	0.01693308
613	45.6	58.245	62.32746	0.017168856
614	45.65	59.755	62.65853	0.016735001
615	45.7	61.734	63.01856	0.016198529
616	45.75	62.994	63.41082	0.015874528
617	45.8	63.559	63.83905	0.015733413
618	45.85	63.961	64.30757	0.015634527
619	45.9	66.883	64.82137	0.014951482
620	45.95	66.953	65.38649	0.014935851
621	46	67.654	66.01027	0.014781092
622	46.05	64.225	66.70055	0.015570261
623	46.1	70.192	67.46376	0.014246638
624	46.15	69.009	68.31289	0.014490864
625	46.2	77.878	69.26099	0.012840597
626	46.25	81.137	70.3237	0.012324833
627	46.3	79.557	71.51985	0.012569604
628	46.35	82.973	72.87225	0.012052113
629	46.4	83.675	74.40881	0.011951001
630	46.45	88.873	76.16393	0.011252011
631	46.5	95.713	78.18058	0.010447902
632	46.55	90.614	80.51343	0.011035822
633	46.6	92.121	83.23461	0.010855288
634	46.65	101.208	86.44529	0.009880642
635	46.7	107.127	90.30139	0.009334715
636	46.75	111.209	95.07068	0.008992078
637	46.8	122.36	101.25414	0.008172605
638	46.85	138.022	109.82427	0.007245222
639	46.9	160.124	122.64591	0.00624516
640	46.95	196.288	143.12353	0.005094555
641	47	244.571	177.02141	0.004088792
642	47.05	307.946	233.19269	0.003247323
643	47.1	406.492	323.65423	0.002460073
644	47.15	530.67	462.19979	0.00188441
645	47.2	712.676	660.8206	0.001403162
646	47.25	963.344	923.86565	0.001038051
647	47.3	1254.548	1241.17119	0.0007971
648	47.35	1581.945	1582.90252	0.000632133
649	47.4	1898.296	1899.4071	0.000526788
650	47.45	2102.769	2128.32732	0.000475563
651	47.5	2182.801	2210.96843	0.000458127
652	47.55	2024.933	2118.79206	0.000493844
653	47.6	1746.837	1874.88136	0.000572463
654	47.65	1385.73	1542.56303	0.000721641
655	47.7	1013.296	1190.84916	0.000986878
656	47.75	749.853	871.31663	0.001333595
657	47.8	571.313	612.38339	0.001750354
658	47.85	438.973	421.82241	0.002278044
659	47.9	352.743	292.87864	0.002834925
660	47.95	281.911	211.57736	0.003547219
661	48	227.766	162.88823	0.004390471
662	48.05	190.263	134.37709	0.005255883
663	48.1	148.046	117.38507	0.006754657
664	48.15	122.063	106.62976	0.008192491
665	48.2	103.33	99.21026	0.009677732
666	48.25	88.332	93.6512	0.011320926
667	48.3	76.665	89.22922	0.013043762
668	48.35	73.378	85.58178	0.013628063
669	48.4	70.075	82.51022	0.014270425
670	48.45	67.706	79.89081	0.01476974
671	48.5	64.355	77.63712	0.015538808
672	48.55	63.594	75.68425	0.015724754
673	48.6	66.82	73.98151	0.014965579
674	48.65	63.84	72.48851	0.01566416
675	48.7	64.343	71.17269	0.015541706
676	48.75	64.93	70.00753	0.015401201
677	48.8	65.81	68.97129	0.015195259
678	48.85	64.475	68.04599	0.015509888
679	48.9	57.966	67.2167	0.017251492
680	48.95	55.527	66.4709	0.018009257
681	49	60.56	65.79807	0.01651255
682	49.05	61.237	65.1893	0.016329997
683	49.1	59.964	64.63701	0.016676673
684	49.15	62.833	64.13472	0.015915204
685	49.2	60.155	63.67688	0.016623722
686	49.25	54.888	63.2587	0.018218919
687	49.3	60.346	62.87602	0.016571107
688	49.35	68.463	62.52527	0.01460643
689	49.4	57.793	62.20329	0.017303134
690	49.45	55.03	61.90735	0.018171906
691	49.5	57.487	61.63505	0.017395237
692	49.55	59.91	61.38428	0.016691704
693	49.6	58.295	61.15319	0.01715413
694	49.65	61.099	60.94015	0.01636688
695	49.7	63.307	60.7437	0.015796042
696	49.75	57.156	60.56257	0.017495976
697	49.8	57.416	60.39563	0.017416748
698	49.85	56.272	60.24189	0.017770827
699	49.9	54.142	60.10045	0.018469949
700	49.95	55.271	59.97055	0.018092671
701	50	54.875	59.8515	0.018223235
702	50.05	55.786	59.74269	0.017925644
703	50.1	59.351	59.64361	0.016848916
704	50.15	56.985	59.55379	0.017548478
705	50.2	60.055	59.47286	0.016651403
706	50.25	54.805	59.40049	0.01824651
707	50.3	56.285	59.33642	0.017766723
708	50.35	56.265	59.28043	0.017773038
709	50.4	58.446	59.23238	0.017109811
710	50.45	58.968	59.19217	0.01695835
711	50.5	55.53	59.15977	0.018008284
712	50.55	59.702	59.13518	0.016749858
713	50.6	59.745	59.1185	0.016737802
714	50.65	58.23	59.10988	0.017173278
715	50.7	57.516	59.10952	0.017386466
716	50.75	61.074	59.11772	0.01637358
717	50.8	59.466	59.13488	0.016816332
718	50.85	58.882	59.16148	0.016983119
719	50.9	57.113	59.19813	0.017509149
720	50.95	56.858	59.24555	0.017587675
721	51	56.961	59.30464	0.017555872
722	51.05	55.939	59.37649	0.017876616
723	51.1	60.782	59.46245	0.016452239
724	51.15	51.695	59.56414	0.019344231
725	51.2	61.114	59.68353	0.016362863
726	51.25	58.194	59.82305	0.017183902
727	51.3	59.12	59.9856	0.01691475
728	51.35	58.607	60.17424	0.017062808
729	51.4	57.715	60.39767	0.017326518
730	51.45	59.266	60.66107	0.016873081
731	51.5	54.979	60.97587	0.018188763
732	51.55	61.88	61.3616	0.01616031
733	51.6	61.938	61.85869	0.016145177
734	51.65	60.002	62.53967	0.016666111
735	51.7	62.046	63.54437	0.016117074
736	51.75	62.82	65.12034	0.015918497
737	51.8	64.064	67.66652	0.015609391
738	51.85	67.51	71.75203	0.01481262
739	51.9	75.479	78.06706	0.013248718
740	51.95	79.575	87.26249	0.012566761
741	52	92.542	99.66492	0.010805904
742	52.05	111.981	114.91683	0.008930086
743	52.1	130.448	131.66918	0.00766589
744	52.15	148.685	147.50427	0.006725628
745	52.2	163.692	159.1708	0.006109034
746	52.25	176.6	163.55066	0.005662514
747	52.3	164.803	159.23975	0.006067851
748	52.35	151.881	147.64349	0.006584102
749	52.4	130.264	132.15776	0.007676718
750	52.45	112.673	116.23359	0.008875241
751	52.5	96.632	102.29188	0.010348539
752	52.55	90.831	91.5654	0.011009457
753	52.6	82.43	84.30957	0.012131506
754	52.65	75.463	80.16345	0.013251527
755	52.7	74.728	78.52344	0.013381865
756	52.75	78.787	78.81344	0.012692449
757	52.8	79.592	80.89309	0.012564077
758	52.85	88.142	85.10215	0.011345329
759	52.9	95.435	92.46713	0.010478336
760	52.95	110.274	104.84531	0.009068321
761	53	136.397	124.93708	0.00733154
762	53.05	159.547	155.97903	0.006267746
763	53.1	215.626	200.94999	0.00463766
764	53.15	283.741	261.29642	0.003524341
765	53.2	359.347	335.46937	0.002782826
766	53.25	453.789	417.82911	0.002203667
767	53.3	541.486	498.59359	0.00184677
768	53.35	616.561	565.53846	0.0016219
769	53.4	656.688	608.39136	0.001522793
770	53.45	663.787	625.22009	0.001506507
771	53.5	640.33	624.00061	0.001561695
772	53.55	617.626	614.80601	0.001619103
773	53.6	600.089	601.34621	0.001666419
774	53.65	585.541	579.31991	0.001707822
775	53.7	555.606	540.79089	0.001799837
776	53.75	491.632	482.07832	0.002034042
777	53.8	410.129	408.6559	0.002438257
778	53.85	318.066	331.38924	0.003144002
779	53.9	245.776	260.08203	0.004068746
780	53.95	194.335	200.75483	0.005145753
781	54	149.849	155.61601	0.006673385
782	54.05	121.749	123.89862	0.00821362
783	54.1	96.643	103.06362	0.010347361
784	54.15	85.645	90.0221	0.011676105
785	54.2	74.736	82.01332	0.013380432
786	54.25	72.71	76.99917	0.013753266
787	54.3	64.876	73.67579	0.015414021
788	54.35	63.26	71.29721	0.015807777
789	54.4	65.065	69.46939	0.015369246
790	54.45	60.041	67.99162	0.016655286
791	54.5	61.918	66.75924	0.016150392
792	54.55	60.481	65.71267	0.016534118
793	54.6	61.785	64.81367	0.016185158
794	54.65	57.234	64.03502	0.017472132
795	54.7	57.73	63.35605	0.017322016
796	54.75	55.584	62.76054	0.017990789
797	54.8	56.666	62.23546	0.017647266
798	54.85	57.342	61.77027	0.017439224
799	54.9	58.389	61.35636	0.017126514
800	54.95	53.828	60.98661	0.018577692
801	55	55.772	60.65512	0.017930144
802	55.05	56.551	60.35697	0.017683153
803	55.1	54.784	60.08801	0.018253505
804	55.15	54.094	59.84475	0.018486339
805	55.2	57.865	59.62419	0.017281604
806	55.25	57.687	59.42381	0.017334928
807	55.3	54.808	59.24143	0.018245512
808	55.35	53.932	59.07515	0.018541868
809	55.4	58.239	58.92337	0.017170624
810	55.45	62.391	58.78467	0.016027953
811	55.5	53.963	58.65783	0.018531216
812	55.55	54.135	58.54178	0.018472338
813	55.6	53.756	58.43558	0.018602575
814	55.65	55.787	58.33845	0.017925323
815	55.7	55.392	58.2505	0.018053148
816	55.75	54.094	58.17209	0.018486339
817	55.8	56.03	58.09807	0.017847582
818	55.85	58.991	58.0307	0.016951738
819	55.9	55.694	57.96958	0.017955256
820	55.95	57.564	57.91514	0.017371969
821	56	57.038	57.86781	0.017532172
822	56.05	57.031	57.82325	0.017534323
823	56.1	57.052	57.78368	0.017527869
824	56.15	57.603	57.74889	0.017360207
825	56.2	58.027	57.71869	0.017233357
826	56.25	58.608	57.69296	0.017062517
827	56.3	56.563	57.67273	0.017679402
828	56.35	56.023	57.66728	0.017849812
829	56.4	54.623	57.65442	0.018307306
830	56.45	56.916	57.64573	0.017569752
831	56.5	60.264	57.6412	0.016593655
832	56.55	55.273	57.64086	0.018092016
833	56.6	53.18	57.64475	0.018804062
834	56.65	55.725	57.65296	0.017945267
835	56.7	56.638	57.66559	0.017655991
836	56.75	58.197	57.68363	0.017183016
837	56.8	58.409	57.71126	0.017120649
838	56.85	59.475	57.73813	0.016813787
839	56.9	63.035	57.77015	0.015864202
840	56.95	58.604	57.80758	0.017063682
841	57	57.647	57.85074	0.017346956
842	57.05	55.518	57.89987	0.018012176
843	57.1	58.732	57.95472	0.017026493
844	57.15	54.333	58.01775	0.018405021
845	57.2	58.146	58.08998	0.017198088
846	57.25	57.57	58.17281	0.017370158
847	57.3	58.826	58.27159	0.016999286
848	57.35	57.069	58.37327	0.017522648
849	57.4	56.312	58.487	0.017758204
850	57.45	55.434	58.61432	0.01803947
851	57.5	57.481	58.76177	0.017397053
852	57.55	59.792	58.9353	0.016724645
853	57.6	57.723	59.11496	0.017324117
854	57.65	62.683	59.31731	0.015953289
855	57.7	57.252	59.5459	0.017466639
856	57.75	59.738	59.80507	0.016739764
857	57.8	56.038	60.10012	0.017845034
858	57.85	57.461	60.43763	0.017403108
859	57.9	59.71	60.8259	0.016747613
860	57.95	61.696	61.27566	0.016208506
861	58	60.859	61.80143	0.016431423
862	58.05	61.559	62.42458	0.016244578
863	58.1	64.203	63.18012	0.015575596
864	58.15	65.361	64.13154	0.015299644
865	58.2	63.133	65.40007	0.015839577
866	58.25	68.096	67.21534	0.01468515
867	58.3	69.813	69.9875	0.01432398
868	58.35	68.392	74.38231	0.014621593
869	58.4	73.172	81.34883	0.01366643
870	58.45	87.177	92.02219	0.011470915
871	58.5	98.614	107.43063	0.010140548
872	58.55	123.137	128.00443	0.008121036
873	58.6	148.346	153.0062	0.006740997
874	58.65	181.235	180.04691	0.005517698
875	58.7	210.445	205.03837	0.004751835
876	58.75	235.526	223.02835	0.004245816
877	58.8	243.609	230.61978	0.004104939
878	58.85	236.38	229.21148	0.004230476
879	58.9	232.416	225.27382	0.00430263
880	58.95	225.078	226.55514	0.004442904
881	59	221.575	238.36551	0.004513145
882	59.05	250.642	261.96223	0.003989754
883	59.1	287.222	293.97142	0.003481627
884	59.15	339.847	326.69453	0.002942501
885	59.2	379.197	350.10166	0.002637152
886	59.25	385.823	356.12375	0.002591862
887	59.3	374.796	342.56051	0.002668118
888	59.35	337.406	312.34954	0.002963788
889	59.4	298.339	270.97864	0.003351892
890	59.45	240.527	225.47655	0.004157537
891	59.5	189.575	182.58218	0.005274957
892	59.55	142.428	146.59615	0.007021091
893	59.6	114.728	119.03427	0.008716268
894	59.65	100.245	99.44603	0.00997556
895	59.7	86.817	86.35388	0.011518481
896	59.75	77.988	77.98721	0.012822486
897	59.8	69.612	72.75094	0.014365339
898	59.85	66.978	69.43709	0.014930276
899	59.9	64.362	67.24385	0.015537118
900	59.95	65.192	65.6924	0.015339305
901	60	63.229	64.51871	0.015815528
902	60.05	63.079	63.58346	0.015853137
903	60.1	58.978	62.81263	0.016955475
904	60.15	61.302	62.16425	0.016312681
905	60.2	62.292	61.6119	0.016053426
906	60.25	59.931	61.13716	0.016685855
907	60.3	56.883	60.7263	0.017579945
908	60.35	57.23	60.36864	0.017473353
909	60.4	55.291	60.05568	0.018086126
910	60.45	61.609	59.7806	0.016231395
911	60.5	57.55	59.53786	0.017376195
912	60.55	58.315	59.32291	0.017148247
913	60.6	62.621	59.13199	0.015969084
914	60.65	57.44	58.962	0.017409471
915	60.7	58.323	58.81033	0.017145894
916	60.75	53.282	58.67479	0.018768064
917	60.8	54.043	58.55355	0.018503784
918	60.85	56.296	58.44503	0.017763251
919	60.9	61.348	58.34792	0.01630045
920	60.95	62.709	58.26108	0.015946674
921	61	62.374	58.18354	0.016032321
922	61.05	59.811	58.11449	0.016719333
923	61.1	58.621	58.05323	0.017058733
924	61.15	54.173	57.99915	0.01845938
925	61.2	59.931	57.95177	0.016685855
926	61.25	57.71	57.91065	0.017328019
927	61.3	61.728	57.87546	0.016200104
928	61.35	62.993	57.84593	0.01587478
929	61.4	62.658	57.82183	0.015959654
930	61.45	56.94	57.80302	0.017562346
931	61.5	62.368	57.78942	0.016033864
932	61.55	62.867	57.781	0.015906596
933	61.6	64.253	57.7778	0.015563476
934	61.65	61.603	57.77992	0.016232976
935	61.7	59.825	57.78763	0.01671542
936	61.75	65.863	57.81059	0.015183031
937	61.8	61.997	57.83146	0.016129813
938	61.85	66.626	57.85764	0.015009156
939	61.9	63.206	57.89103	0.015821283
940	61.95	66.022	57.93239	0.015146466
941	62	64.243	57.98268	0.015565898
942	62.05	64.126	58.04321	0.015594299
943	62.1	64.166	58.12069	0.015584578
944	62.15	66.999	58.20642	0.014925596
945	62.2	65.104	58.30817	0.015360039
946	62.25	63.239	58.42907	0.015813027
947	62.3	62.254	58.57319	0.016063225
948	62.35	63.549	58.74602	0.015735889
949	62.4	60.17	58.95545	0.016619578
950	62.45	61.602	59.21395	0.016233239
951	62.5	61.587	59.54365	0.016237193
952	62.55	60.849	59.98708	0.016434124
953	62.6	64.415	60.62774	0.015524334
954	62.65	66.374	61.62304	0.01506614
955	62.7	66.58	63.24589	0.015019525
956	62.75	61.154	65.91603	0.01635216
957	62.8	72.259	70.18405	0.013839107
958	62.85	78.486	76.62333	0.012741126
959	62.9	84.69	85.60683	0.01180777
960	62.95	93.821	96.99703	0.010658595
961	63	104.91	109.82345	0.00953198
962	63.05	117.316	122.05112	0.008523986
963	63.1	119.435	130.68729	0.008372755
964	63.15	133.311	132.78729	0.007501256
965	63.2	132.374	127.4331	0.007554354
966	63.25	113.911	116.64353	0.008778783
967	63.3	101.831	103.71851	0.009820192
968	63.35	92.284	91.33295	0.010836115
969	63.4	84.479	81.0057	0.011837261
970	63.45	75.136	73.26663	0.013309199
971	63.5	73.874	67.96083	0.013536562
972	63.55	69.245	64.57444	0.014441476
973	63.6	68.965	62.51346	0.014500109
974	63.65	61.446	61.27591	0.016274452
975	63.7	63.513	60.51175	0.015744808
976	63.75	63.334	60.00918	0.015789307
977	63.8	64.754	59.6528	0.015443061
978	63.85	57.413	59.38373	0.017417658
979	63.9	60.605	59.17212	0.016500289
980	63.95	61.715	59.00196	0.016203516
981	64	62.709	58.86363	0.015946674
982	64.05	62.99	58.75063	0.015875536
983	64.1	58.557	58.65825	0.017077378
984	64.15	59.877	58.5829	0.016700904
985	64.2	58.749	58.52177	0.017021566
986	64.25	60.323	58.47265	0.016577425
987	64.3	61.759	58.43376	0.016191972
988	64.35	61.75	58.40368	0.016194332
989	64.4	57.648	58.38126	0.017346656
990	64.45	58.07	58.36554	0.017220596
991	64.5	63.1	58.35576	0.015847861
992	64.55	58.733	58.35128	0.017026203
993	64.6	61.723	58.35157	0.016201416
994	64.65	62.113	58.35619	0.016099689
995	64.7	58.881	58.36479	0.016983407
996	64.75	64.224	58.37704	0.015570503
997	64.8	61.823	58.39272	0.01617521
998	64.85	56.25	58.4116	0.017777778
999	64.9	55.587	58.43352	0.017989818
1000	64.95	58.317	58.45814	0.017147658
1001	65	61.23	58.48406	0.016331863
1002	65.05	57.241	58.51031	0.017469995
1003	65.1	61.346	58.53525	0.016300981
1004	65.15	59.936	58.55379	0.016684463
1005	65.2	59.045	58.55001	0.016936235
1006	65.25	59.288	58.59102	0.01686682
1007	65.3	61.042	58.63455	0.016382163
1008	65.35	59.446	58.68063	0.01682199
1009	65.4	61.267	58.73024	0.016322
1010	65.45	63.767	58.7929	0.015682093
1011	65.5	63.196	58.84686	0.015823786
1012	65.55	60.366	58.90351	0.016565616
1013	65.6	61.676	58.96294	0.016213762
1014	65.65	64.482	59.02523	0.015508204
1015	65.7	63.198	59.09046	0.015823286
1016	65.75	66.598	59.15873	0.015015466
1017	65.8	62.205	59.23018	0.016075878
1018	65.85	61.595	59.30491	0.016235084
1019	65.9	60.067	59.38308	0.016648076
1020	65.95	61.424	59.46609	0.016280281
1021	66	62.204	59.56724	0.016076137
1022	66.05	64.684	59.6568	0.015459774
1023	66.1	64.418	59.7505	0.015523611
1024	66.15	58.525	59.84858	0.017086715
1025	66.2	59.375	59.95126	0.016842105
1026	66.25	56.848	60.05882	0.017590768
1027	66.3	60.518	60.17153	0.016524009
1028	66.35	60.397	60.28972	0.016557114
1029	66.4	64.867	60.41371	0.015416159
1030	66.45	67.082	60.56096	0.014907129
1031	66.5	62.088	60.70152	0.016106172
1032	66.55	59.987	60.84541	0.016670279
1033	66.6	62.435	60.99681	0.016016657
1034	66.65	62.328	61.15647	0.016044154
1035	66.7	66.034	61.33174	0.015143714
1036	66.75	64.48	61.50906	0.015508685
1037	66.8	66.411	61.69632	0.015057746
1038	66.85	71.143	61.89429	0.014056197
1039	66.9	64.5	62.10382	0.015503876
1040	66.95	67.405	62.32584	0.014835695
1041	67	62.391	62.56138	0.016027953
1042	67.05	61.265	62.8116	0.016322533
1043	67.1	66.174	63.07778	0.015111675
1044	67.15	65.194	63.36134	0.015338835
1045	67.2	67.167	63.66388	0.014888264
1046	67.25	62.781	63.98716	0.015928386
1047	67.3	68.862	64.33321	0.014521797
1048	67.35	65.157	64.70427	0.015347545
1049	67.4	65.617	65.10288	0.015239953
1050	67.45	64.294	65.53194	0.015553551
1051	67.5	63.351	65.99472	0.01578507
1052	67.55	65.127	66.49495	0.015354615
1053	67.6	61.687	67.03693	0.016210871
1054	67.65	67.777	67.62557	0.014754268
1055	67.7	62.398	68.26654	0.016026155
1056	67.75	67.359	68.96643	0.014845826
1057	67.8	68.315	69.7329	0.014638074
1058	67.85	70.122	70.57492	0.01426086
1059	67.9	69.847	71.50303	0.014317007
1060	67.95	73.613	72.52971	0.013584557
1061	68	73.584	73.66981	0.013589911
1062	68.05	74.443	74.94111	0.013433096
1063	68.1	80.556	76.36508	0.012413725
1064	68.15	80.94	77.96778	0.012354831
1065	68.2	82.602	79.78113	0.012106244
1066	68.25	86.405	81.84462	0.011573404
1067	68.3	78.409	84.20746	0.012753638
1068	68.35	84.909	86.93185	0.011777315
1069	68.4	91.836	90.09769	0.010888976
1070	68.45	88.471	93.81061	0.011303139
1071	68.5	94.9	98.21796	0.010537408
1072	68.55	101.802	103.54407	0.00982299
1073	68.6	99.753	110.17019	0.010024761
1074	68.65	111.281	118.80556	0.00898626
1075	68.7	124.982	130.81246	0.008001152
1076	68.75	151.479	148.72536	0.006601575
1077	68.8	177.067	176.8854	0.00564758
1078	68.85	209.45	221.86673	0.004774409
1079	68.9	275.118	292.08733	0.003634804
1080	68.95	370.092	395.93548	0.002702031
1081	69	491.181	538.17493	0.002035909
1082	69.05	659.066	715.15163	0.001517299
1083	69.1	837.276	909.65925	0.001194349
1084	69.15	1034.342	1086.71274	0.000966798
1085	69.2	1180.909	1196.7677	0.000846805
1086	69.25	1220.139	1200.54569	0.000819579
1087	69.3	1155.754	1105.2298	0.000865236
1088	69.35	992.646	962.25179	0.001007408
1089	69.4	852.846	829.30311	0.001172545
1090	69.45	781.492	747.48156	0.001279604
1091	69.5	775.981	738.20893	0.001288691
1092	69.55	852.253	803.87974	0.00117336
1093	69.6	998.868	927.89183	0.001001133
1094	69.65	1154.163	1074.27129	0.000866429
1095	69.7	1288.397	1189.29311	0.000776158
1096	69.75	1316.489	1216.63666	0.000759596
1097	69.8	1241.915	1133.08975	0.000805208
1098	69.85	1050.538	967.51624	0.000951893
1099	69.9	809.963	771.57452	0.001234624
1100	69.95	597.88	585.9616	0.001672576
1101	70	413.447	432.47829	0.00241869
1102	70.05	297.428	317.84651	0.003362158
1103	70.1	221.314	239.00718	0.004518467
1104	70.15	173.023	188.02057	0.005779578
1105	70.2	142.518	156.10938	0.007016658
1106	70.25	119.197	136.03462	0.008389473
1107	70.3	102.654	122.83469	0.009741462
1108	70.35	93.081	113.53888	0.010743331
1109	70.4	83.635	106.52951	0.011956717
1110	70.45	83.747	100.96595	0.011940726
1111	70.5	78.587	96.40427	0.012724751
1112	70.55	74.722	92.59038	0.013382939
1113	70.6	71.937	89.36171	0.013901052
1114	70.65	69.657	86.60363	0.014356059
1115	70.7	66.581	84.22988	0.0150193
1116	70.75	69.855	82.17367	0.014315368
1117	70.8	69.976	80.38194	0.014290614
1118	70.85	67.129	78.85438	0.014896691
1119	70.9	64.211	77.48201	0.015573656
1120	70.95	65.742	76.27327	0.015210976
1121	71	69.852	75.2054	0.014315982
1122	71.05	71.186	74.25962	0.014047706
1123	71.1	70.834	73.41925	0.014117514
1124	71.15	73.967	72.66988	0.013519542
1125	71.2	73.608	72.01399	0.01358548
1126	71.25	70.38	71.43423	0.014208582
1127	71.3	67.331	70.92336	0.014852
1128	71.35	65.048	70.47536	0.015373263
1129	71.4	69.568	70.0853	0.014374425
1130	71.45	67.79	69.74918	0.014751438
1131	71.5	67.022	69.46387	0.014920474
1132	71.55	71.157	69.227	0.014053431
1133	71.6	71.588	69.03695	0.013968822
1134	71.65	68.914	68.89282	0.01451084
1135	71.7	73.212	68.79445	0.013658963
1136	71.75	70.732	68.74246	0.014137873
1137	71.8	69.908	68.73834	0.014304515
1138	71.85	72.241	68.78455	0.013842555
1139	71.9	74.849	68.88472	0.013360232
1140	71.95	71.3	69.04392	0.014025245
1141	72	71.715	69.26903	0.013944084
1142	72.05	73.501	69.56947	0.013605257
1143	72.1	74.041	69.95853	0.01350603
1144	72.15	71.274	70.45617	0.014030362
1145	72.2	68.691	71.09531	0.014557948
1146	72.25	75.617	71.93465	0.013224539
1147	72.3	70.206	73.08211	0.014243797
1148	72.35	69.66	74.73043	0.014355441
1149	72.4	72.694	77.1973	0.013756294
1150	72.45	79.01	80.9469	0.012656626
1151	72.5	82.839	86.55519	0.012071609
1152	72.55	94.865	94.58618	0.010541296
1153	72.6	103.354	105.37868	0.009675484
1154	72.65	115.084	118.77294	0.008689305
1155	72.7	128.103	133.78645	0.007806218
1156	72.75	145.654	148.32142	0.006865586
1157	72.8	160.913	159.58842	0.006214538
1158	72.85	168.729	166.10868	0.005926663
1159	72.9	169.43	169.28535	0.005902142
1160	72.95	173.046	171.67573	0.00577881
1161	73	172.956	174.46456	0.005781817
1162	73.05	176.438	177.26634	0.005667713
1163	73.1	174.594	180.2629	0.005727574
1164	73.15	175.962	186.21329	0.005683045
1165	73.2	181.084	199.13671	0.005522299
1166	73.25	203.731	221.37005	0.004908433
1167	73.3	235.48	251.8383	0.004246645
1168	73.35	275.043	285.13526	0.003635795
1169	73.4	306.764	311.27771	0.003259835
1170	73.45	322.783	319.08742	0.003098057
1171	73.5	318.081	304.84791	0.003143853
1172	73.55	303.684	276.44295	0.003292897
1173	73.6	266.242	246.08227	0.003755981
1174	73.65	235.085	222.74922	0.004253781
1175	73.7	220.459	210.49662	0.004535991
1176	73.75	227.305	208.90999	0.004399375
1177	73.8	236.007	213.71428	0.004237162
1178	73.85	235.586	217.78625	0.004244734
1179	73.9	244.335	214.62252	0.004092742
1180	73.95	233.1	203.44179	0.004290004
1181	74	208.322	189.39582	0.004800261
1182	74.05	189.281	178.88434	0.00528315
1183	74.1	182.012	176.73566	0.005494143
1184	74.15	184.614	185.86065	0.005416707
1185	74.2	206.272	207.32066	0.004847968
1186	74.25	233.156	240.19518	0.004288974
1187	74.3	272.879	281.11703	0.003664628
1188	74.35	311.155	323.92143	0.003213832
1189	74.4	346.393	361.91421	0.002886894
1190	74.45	393.369	393.38172	0.002542142
1191	74.5	432.767	421.52593	0.002310712
1192	74.55	488.359	446.21479	0.002047674
1193	74.6	505.934	458.32826	0.001976542
1194	74.65	514.168	444.51905	0.00194489
1195	74.7	480.088	401.07281	0.002082951
1196	74.75	401.155	339.34525	0.002492802
1197	74.8	319.561	274.74768	0.003129293
1198	74.85	239.635	217.53519	0.004173013
1199	74.9	182.503	172.17099	0.005479362
1200	74.95	138.229	139.16071	0.007234372
1201	75	116.642	116.73594	0.008573241
1202	75.05	102.144	102.19624	0.0097901
1203	75.1	92.951	92.91504	0.010758357
1204	75.15	86.928	86.862	0.011503773
1205	75.2	77.058	82.69972	0.012977238
1206	75.25	80.347	79.64482	0.012446015
1207	75.3	76.888	77.27149	0.013005931
1208	75.35	66.491	75.3529	0.015039629
1209	75.4	67.561	73.76284	0.014801439
1210	75.45	65.591	72.4242	0.015245994
1211	75.5	62.43	71.28484	0.01601794
1212	75.55	65.793	70.30675	0.015199185
1213	75.6	69.224	69.46101	0.014445857
1214	75.65	64.412	68.72504	0.015525057
1215	75.7	66.434	68.08097	0.015052533
1216	75.75	65.353	67.5145	0.015301516
1217	75.8	67.719	67.01403	0.014766904
1218	75.85	65.86	66.57015	0.015183723
1219	75.9	64.829	66.17506	0.015425196
1220	75.95	67.113	65.82212	0.014900243
1221	76	71.364	65.50562	0.014012667
1222	76.05	64.584	65.21949	0.015483711
1223	76.1	64.058	64.96289	0.015610853
1224	76.15	68.807	64.73415	0.014533405
1225	76.2	69.027	64.52826	0.014487085
1226	76.25	71.583	64.34288	0.013969797
1227	76.3	74.648	64.17602	0.013396206
1228	76.35	74.017	64.02582	0.01351041
1229	76.4	72.424	63.89036	0.013807578
1230	76.45	73.149	63.76755	0.013670727
1231	76.5	69.483	63.65416	0.01439201
1232	76.55	68.306	63.55811	0.014640002
1233	76.6	69.323	63.47225	0.014425227
1234	76.65	76.856	63.39594	0.013011346
1235	76.7	78.197	63.33229	0.012788214
1236	76.75	76.59	63.27818	0.013056535
1237	76.8	75.056	63.23321	0.013323385
1238	76.85	71.541	63.19711	0.013977999
1239	76.9	69.308	63.16963	0.014428349
1240	76.95	71.981	63.15064	0.013892555
1241	77	69.945	63.14006	0.014296948
1242	77.05	71.557	63.13791	0.013974873
1243	77.1	68.581	63.14426	0.014581298
1244	77.15	59.539	63.15929	0.016795714
1245	77.2	64.437	63.18323	0.015519034
1246	77.25	67.085	63.21643	0.014906462
1247	77.3	67.643	63.25935	0.014783496
1248	77.35	69.483	63.31255	0.01439201
1249	77.4	68.031	63.37671	0.014699181
1250	77.45	67.749	63.45269	0.014760365
1251	77.5	66.667	63.54152	0.014999925
1252	77.55	68.736	63.64441	0.014548417
1253	77.6	66.887	63.76285	0.014950588
1254	77.65	63.921	63.89862	0.015644311
1255	77.7	66.636	64.05386	0.015006903
1256	77.75	65.405	64.23112	0.015289351
1257	77.8	66.649	64.43354	0.015003976
1258	77.85	67.295	64.6649	0.014859945
1259	77.9	65.915	64.92984	0.015171054
1260	77.95	68.163	65.24435	0.014670716
1261	78	69.522	65.60169	0.014383936
1262	78.05	70.21	66.00763	0.014242985
1263	78.1	74.61	66.48003	0.013403029
1264	78.15	69.208	67.03323	0.014449197
1265	78.2	71.257	67.68596	0.014033709
1266	78.25	65.199	68.46345	0.015337659
1267	78.3	72.113	69.40173	0.013867125
1268	78.35	70.51	70.55699	0.014182385
1269	78.4	77.334	72.03219	0.012930923
1270	78.45	83.304	73.996	0.012004225
1271	78.5	82.557	76.77434	0.012112843
1272	78.55	90.926	80.94668	0.010997954
1273	78.6	98.798	87.42651	0.010121662
1274	78.65	103.262	97.47112	0.009684105
1275	78.7	125.857	112.50612	0.007945525
1276	78.75	147.005	133.63638	0.00680249
1277	78.8	172.914	161.0243	0.005783222
1278	78.85	197.919	192.94823	0.005052572
1279	78.9	214.275	224.73533	0.0046669
1280	78.95	233.271	248.14758	0.004286859
1281	79	247.949	254.76839	0.004033087
1282	79.05	233.862	243.90101	0.004276026
1283	79.1	223.42	223.96419	0.004475875
1284	79.15	198.953	204.58793	0.005026313
1285	79.2	181.001	191.23373	0.005524831
1286	79.25	184.763	184.74395	0.005412339
1287	79.3	175.472	181.97539	0.005698915
1288	79.35	163.784	177.2245	0.006105603
1289	79.4	154.644	166.21164	0.006466465
1290	79.45	141.719	149.66724	0.007056217
1291	79.5	129.109	131.37454	0.007745393
1292	79.55	109.043	114.51076	0.009170694
1293	79.6	102.978	100.65941	0.009710812
1294	79.65	94.631	90.21709	0.010567362
1295	79.7	86.018	82.85905	0.011625474
1296	79.75	80.216	77.91246	0.012466341
1297	79.8	77.163	74.65014	0.012959579
1298	79.85	81.803	72.46895	0.012224491
1299	79.9	78.374	70.94812	0.012759333
1300	79.95	73.856	69.82853	0.013539861
1301	80	73.764	68.96298	0.013556749
1302	80.05	73.948	68.27022	0.013523016
1303	80.1	68.601	67.70392	0.014577047
1304	80.15	68.147	67.23547	0.01467416
1305	80.2	67.375	66.84539	0.014842301
1306	80.25	71.925	66.51927	0.013903372
1307	80.3	67.155	66.24534	0.014890924
1308	80.35	69.936	66.0172	0.014298787
1309	80.4	72.805	65.82889	0.01373532
1310	80.45	69.902	65.6739	0.014305742
1311	80.5	70.506	65.54802	0.01418319
1312	80.55	69.339	65.44788	0.014421898
1313	80.6	64.377	65.37073	0.015533498
1314	80.65	70.013	65.31438	0.014283062
1315	80.7	69.859	65.27709	0.014314548
1316	80.75	67.854	65.25746	0.014737525
1317	80.8	66.19	65.2558	0.015108022
1318	80.85	63.321	65.26984	0.015792549
1319	80.9	66.364	65.29778	0.015068411
1320	80.95	65.762	65.34055	0.01520635
1321	81	64.162	65.39801	0.015585549
1322	81.05	65.58	65.47017	0.015248551
1323	81.1	61.324	65.55723	0.016306829
1324	81.15	63.169	65.65958	0.01583055
1325	81.2	66.938	65.77783	0.014939197
1326	81.25	68.413	65.91275	0.014617105
1327	81.3	66.491	66.06669	0.015039629
1328	81.35	68.954	66.23895	0.014502422
1329	81.4	66.949	66.44671	0.014936743
1330	81.45	64.781	66.6625	0.015436625
1331	81.5	67.944	66.90145	0.014718003
1332	81.55	71.029	67.16762	0.014078757
1333	81.6	68.333	67.46421	0.014634218
1334	81.65	66.925	67.79507	0.014942099
1335	81.7	69.882	68.16483	0.014309837
1336	81.75	68.659	68.57912	0.014564733
1337	81.8	73.623	69.04479	0.013582712
1338	81.85	73.825	69.57024	0.013545547
1339	81.9	72.298	70.16587	0.013831641
1340	81.95	66.322	70.84465	0.015077953
1341	82	64.983	71.62299	0.01538864
1342	82.05	76.879	72.52194	0.013007453
1343	82.1	72.857	73.56925	0.013725517
1344	82.15	75.013	74.80323	0.013331023
1345	82.2	72.722	76.28079	0.013750997
1346	82.25	72.098	78.09473	0.01387001
1347	82.3	77.97	80.40873	0.012825446
1348	82.35	76.532	83.51992	0.01306643
1349	82.4	81.982	87.95119	0.0121978
1350	82.45	86.407	94.54997	0.011573136
1351	82.5	99.676	104.52735	0.010032505
1352	82.55	104.817	119.3348	0.009540437
1353	82.6	134.942	140.28977	0.007410591
1354	82.65	163.412	167.93734	0.006119502
1355	82.7	199.441	201.16924	0.005014014
1356	82.75	240.276	235.99389	0.004161881
1357	82.8	271.936	264.26929	0.003677336
1358	82.85	296.585	275.57067	0.003371715
1359	82.9	285.791	265.55739	0.003499061
1360	82.95	277.307	241.16994	0.003606112
1361	83	235.596	213.69365	0.004244554
1362	83.05	211.566	191.61944	0.004726657
1363	83.1	203.041	179.92018	0.004925114
1364	83.15	209.476	181.28845	0.004773817
1365	83.2	214.324	196.79588	0.004665833
1366	83.25	244.097	225.87919	0.004096732
1367	83.3	283.362	265.76606	0.003529055
1368	83.35	326.868	310.18362	0.003059339
1369	83.4	350.593	347.75772	0.00285231
1370	83.45	357.767	364.27996	0.002795115
1371	83.5	362.878	353.67285	0.002755747
1372	83.55	335.281	325.49487	0.002982573
1373	83.6	311.083	296.02303	0.003214576
1374	83.65	302.517	277.89127	0.003305599
1375	83.7	299.247	278.07412	0.003341721
1376	83.75	321.695	298.70791	0.003108534
1377	83.8	346.395	337.22911	0.002886878
1378	83.85	386.763	385.37645	0.002585563
1379	83.9	401.79	427.86873	0.002488862
1380	83.95	424.367	446.56546	0.002356451
1381	84	413.408	434.62595	0.002418918
1382	84.05	378.263	402.64519	0.002643663
1383	84.1	352.49	364.85443	0.00283696
1384	84.15	322.796	327.20679	0.003097932
1385	84.2	296.219	288.45594	0.003375881
1386	84.25	255.582	247.81842	0.003912639
1387	84.3	226.834	208.61222	0.00440851
1388	84.35	189.218	174.65837	0.005284909
1389	84.4	170.566	147.54522	0.005862833
1390	84.45	154.489	127.08875	0.006472953
1391	84.5	134.766	112.2978	0.007420269
1392	84.55	120.796	101.91329	0.00827842
1393	84.6	111.226	94.70266	0.008990704
1394	84.65	104.7	89.63633	0.009551098
1395	84.7	96.25	85.95907	0.01038961
1396	84.75	87.155	83.17296	0.011473811
1397	84.8	79.127	80.97389	0.012637911
1398	84.85	77.417	79.18265	0.01291706
1399	84.9	78.405	77.69209	0.012754289
1400	84.95	75.761	76.43432	0.013199403
1401	85	75.301	75.36288	0.013280036
1402	85.05	72.902	74.44384	0.013717045
1403	85.1	72.503	73.65131	0.013792533
1404	85.15	69.295	72.96501	0.014431056
1405	85.2	70.559	72.38614	0.014172536
1406	85.25	67.945	71.88272	0.014717786
1407	85.3	70.666	71.4314	0.014151077
1408	85.35	68.184	71.03687	0.014666197
1409	85.4	65.262	70.69317	0.015322853
1410	85.45	67.588	70.39445	0.014795526
1411	85.5	69.324	70.13585	0.014425019
1412	85.55	68.993	69.91334	0.014494224
1413	85.6	67.617	69.72357	0.01478918
1414	85.65	68.36	69.56375	0.014628438
1415	85.7	64.138	69.43159	0.015591381
1416	85.75	66.804	69.32521	0.014969164
1417	85.8	69.03	69.24309	0.014486455
1418	85.85	61.862	69.18404	0.016165012
1419	85.9	62.889	69.14715	0.015901032
1420	85.95	65.871	69.13177	0.015181187
1421	86	65.1	69.13753	0.015360983
1422	86.05	64.995	69.16428	0.015385799
1423	86.1	66.449	69.21212	0.015049135
1424	86.15	66.191	69.28139	0.015107794
1425	86.2	67.8	69.37267	0.014749263
1426	86.25	67.846	69.48529	0.014739262
1427	86.3	65.041	69.60746	0.015374917
1428	86.35	66.717	69.73406	0.014988684
1429	86.4	64.236	69.92576	0.015567594
1430	86.45	63.548	70.14705	0.015736136
1431	86.5	66.528	70.40079	0.015031265
1432	86.55	64.724	70.69041	0.015450219
1433	86.6	71.984	71.02004	0.013891976
1434	86.65	72.581	71.39475	0.01377771
1435	86.7	66.224	71.82068	0.015100266
1436	86.75	69.541	72.30526	0.014380006
1437	86.8	74.136	72.85227	0.013488723
1438	86.85	72.244	73.45669	0.01384198
1439	86.9	71.244	74.16152	0.01403627
1440	86.95	76.038	75.00033	0.013151319
1441	87	73.171	75.9742	0.013666617
1442	87.05	77.834	77.11374	0.012847856
1443	87.1	74.548	78.46056	0.013414176
1444	87.15	74.471	80.07498	0.013428046
1445	87.2	76.762	82.05193	0.013027279
1446	87.25	72.702	84.55305	0.01375478
1447	87.3	77.713	87.86481	0.01286786
1448	87.35	80.92	92.4876	0.012357884
1449	87.4	85.067	99.24116	0.01175544
1450	87.45	101.469	109.33174	0.009855227
1451	87.5	104.95	124.27615	0.009528347
1452	87.55	135.115	145.62002	0.007401103
1453	87.6	163.093	174.35753	0.006131471
1454	87.65	215.628	210.07929	0.004637617
1455	87.7	277.561	249.69538	0.003602812
1456	87.75	328.506	285.6504	0.003044084
1457	87.8	354.001	305.91148	0.002824851
1458	87.85	325.871	301.28034	0.003068699
1459	87.9	282.725	275.06009	0.003537006
1460	87.95	232.717	239.33038	0.004297065
1461	88	195.514	204.44474	0.005114723
1462	88.05	174.487	175.73894	0.005731086
1463	88.1	156.348	154.99911	0.006395988
1464	88.15	141.722	142.06909	0.007056068
1465	88.2	154.13	135.97396	0.00648803
1466	88.25	154.695	135.7831	0.006464333
1467	88.3	169.613	141.25372	0.005895774
1468	88.35	175.217	153.31299	0.005707209
1469	88.4	182.702	174.3276	0.005473394
1470	88.45	215.159	208.04761	0.004647726
1471	88.5	257.372	258.99984	0.003885427
1472	88.55	338.767	331.14041	0.002951881
1473	88.6	436.407	425.7322	0.002291439
1474	88.65	585.253	538.30629	0.001708663
1475	88.7	743.955	654.04647	0.001344167
1476	88.75	850.318	743.20619	0.001176031
1477	88.8	889.929	769.05832	0.001123685
1478	88.85	812.832	718.05182	0.001230267
1479	88.9	664.06	615.00795	0.001505888
1480	88.95	500.789	496.77806	0.001996849
1481	89	363.083	388.00472	0.002754191
1482	89.05	265.939	299.42562	0.003760261
1483	89.1	187.227	233.14223	0.00534111
1484	89.15	156.648	186.63138	0.006383739
1485	89.2	135.987	155.4031	0.007353644
1486	89.25	116.868	134.81477	0.008556662
1487	89.3	103.743	121.07791	0.009639205
1488	89.35	93.012	111.55203	0.010751301
1489	89.4	85.059	104.59526	0.011756545
1490	89.45	86.184	99.25971	0.011603082
1491	89.5	72.846	95.01269	0.01372759
1492	89.55	74.209	91.54678	0.013475454
1493	89.6	75.204	88.67175	0.013297165
1494	89.65	67.96	86.26008	0.014714538
1495	89.7	70.306	84.21863	0.014223537
1496	89.75	72.476	82.47815	0.013797671
1497	89.8	70.628	80.98521	0.014158691
1498	89.85	69.351	79.69783	0.014419403
1499	89.9	72.115	78.58138	0.013866741
1500	89.95	68.854	77.61063	0.014523484
1501	90	71.368	76.77053	0.014011882
1502	90.05	71.957	76.03895	0.013897189
1503	90.1	73.417	75.39674	0.013620824
1504	90.15	71.978	74.83359	0.013893134
1505	90.2	76.022	74.34011	0.013154087
1506	90.25	72.456	73.91313	0.01380148
1507	90.3	74.2	73.55252	0.013477089
1508	90.35	70.513	73.23754	0.014181782
1509	90.4	78.596	72.96883	0.012723294
1510	90.45	70.749	72.74892	0.014134475
1511	90.5	74.452	72.56803	0.013431473
1512	90.55	72.526	72.42162	0.013788159
1513	90.6	81.064	72.30871	0.012335932
1514	90.65	75.163	72.24218	0.013304418
1515	90.7	79.768	72.21345	0.012536355
1516	90.75	80.895	72.2231	0.012361703
1517	90.8	77.787	72.27237	0.012855619
1518	90.85	70.571	72.36329	0.014170127
1519	90.9	78.486	72.49874	0.012741126
1520	90.95	77.182	72.6821	0.012956389
1521	91	77.64	72.91744	0.012879959
1522	91.05	78.331	73.21789	0.012766338
1523	91.1	74.43	73.58552	0.013435443
1524	91.15	74.131	74.03476	0.013489633
1525	91.2	78.52	74.57884	0.012735609
1526	91.25	82.342	75.2331	0.012144471
1527	91.3	77.814	76.0244	0.012851158
1528	91.35	75.726	76.98617	0.013205504
1529	91.4	79.379	78.1724	0.01259779
1530	91.45	82.179	79.66233	0.012168559
1531	91.5	81.402	81.58489	0.01228471
1532	91.55	90.986	84.17833	0.010990702
1533	91.6	95.044	87.85507	0.010521443
1534	91.65	94.449	93.21656	0.010587725
1535	91.7	107.056	101.12961	0.009340906
1536	91.75	117.901	112.61482	0.008481692
1537	91.8	135.643	128.65698	0.007372293
1538	91.85	158.639	149.8475	0.00630362
1539	91.9	168.391	175.70925	0.00593856
1540	91.95	192.041	203.83425	0.005207221
1541	92	204.626	228.60589	0.004886965
1542	92.05	213.703	241.71097	0.004679391
1543	92.1	212.074	237.88343	0.004715335
1544	92.15	193.829	220.71431	0.005159187
1545	92.2	192.797	198.85612	0.005186803
1546	92.25	181.543	179.08847	0.005508337
1547	92.3	174.603	164.48075	0.005727278
1548	92.35	158.738	155.31405	0.006299689
1549	92.4	159.744	150.13539	0.006260016
1550	92.45	154.182	147.18349	0.006485841
1551	92.5	160.457	146.25524	0.006232199
1552	92.55	154.238	148.88394	0.006483487
1553	92.6	164.303	156.70201	0.006086316
1554	92.65	178.47	170.32963	0.005603183
1555	92.7	189.917	188.83546	0.005265458
1556	92.75	204.021	208.93778	0.004901456
1557	92.8	212.938	224.22388	0.004696203
1558	92.85	216.193	227.12029	0.004625497
1559	92.9	200.21	215.12303	0.004994756
1560	92.95	189.854	193.44601	0.005267205
1561	93	172.541	169.44966	0.005795724
1562	93.05	144.636	147.98286	0.006913908
1563	93.1	123.621	131.2418	0.008089241
1564	93.15	123.114	119.89808	0.008122553
1565	93.2	118.31	113.90789	0.008452371
1566	93.25	117.868	112.97842	0.008484067
1567	93.3	116.851	116.7899	0.008557907
1568	93.35	116.472	124.98489	0.008585755
1569	93.4	126.963	136.93079	0.00787631
1570	93.45	134.23	151.23119	0.007449899
1571	93.5	145.22	164.97226	0.006886104
1572	93.55	148.098	173.42131	0.006752286
1573	93.6	143.134	172.23921	0.00698646
1574	93.65	136.421	161.50668	0.00733025
1575	93.7	130.558	145.58196	0.007659431
1576	93.75	121.438	128.99709	0.008234655
1577	93.8	102.27	114.35727	0.009778039
1578	93.85	94.021	102.6247	0.010635922
1579	93.9	85.079	93.84095	0.011753782
1580	93.95	84.955	87.58536	0.011770938
1581	94	78.371	83.26391	0.012759822
1582	94.05	71.255	80.29857	0.014034103
1583	94.1	76.679	78.2264	0.01304138
1584	94.15	71.911	76.72365	0.013906078
1585	94.2	78.556	75.58503	0.012729772
1586	94.25	73.133	74.68809	0.013673718
1587	94.3	76.587	73.96111	0.013057046
1588	94.35	68.301	73.36084	0.014641074
1589	94.4	71.625	72.85945	0.013961606
1590	94.45	72.426	72.43772	0.013807196
1591	94.5	73.772	72.08155	0.013555278
1592	94.55	70.865	71.78033	0.014111338
1593	94.6	63.467	71.52552	0.01575622
1594	94.65	70.549	71.3105	0.014174545
1595	94.7	72.629	71.13	0.013768605
1596	94.75	73.277	70.97979	0.013646847
1597	94.8	66.482	70.85647	0.015041665
1598	94.85	69.602	70.75729	0.014367403
1599	94.9	75.269	70.68004	0.013285682
1600	94.95	72.308	70.62294	0.013829728
1601	95	77.402	70.5846	0.012919563
1602	95.05	75.171	70.5639	0.013303002
1603	95.1	77.698	70.56004	0.012870344
1604	95.15	76.217	70.57242	0.013120432
1605	95.2	77.348	70.60068	0.012928583
1606	95.25	77.213	70.64464	0.012951187
1607	95.3	72.077	70.70435	0.013874051
1608	95.35	73.798	70.77998	0.013550503
1609	95.4	73.372	70.87195	0.013629177
1610	95.45	77.268	70.98083	0.012941968
1611	95.5	77.194	71.10742	0.012954375
1612	95.55	78.735	71.25274	0.012700832
1613	95.6	73.307	71.41804	0.013641262
1614	95.65	69.603	71.60486	0.014367197
1615	95.7	69.572	71.81506	0.014373599
1616	95.75	73.757	72.05084	0.013558035
1617	95.8	71.173	72.31485	0.014050272
1618	95.85	73.46	72.61023	0.013612851
1619	95.9	77.96	72.94075	0.012827091
1620	95.95	77.553	73.31089	0.012894408
1621	96	69.457	73.72605	0.014397397
1622	96.05	73.203	74.19271	0.013660642
1623	96.1	70.075	74.71876	0.014270425
1624	96.15	70.84	75.31377	0.014116318
1625	96.2	72.615	75.98901	0.013771259
1626	96.25	76.991	76.74974	0.012988531
1627	96.3	75.228	77.63447	0.013292923
1628	96.35	74.687	78.65591	0.013389211
1629	96.4	80.965	79.84392	0.012351016
1630	96.45	81.795	81.23831	0.012225686
1631	96.5	80.872	82.89475	0.012365219
1632	96.55	79.715	84.89612	0.01254469
1633	96.6	82.71	87.37365	0.012090436
1634	96.65	90.04	90.53977	0.011106175
1635	96.7	90.355	94.76407	0.011067456
1636	96.75	97.859	100.61299	0.010218784
1637	96.8	109.376	108.92972	0.009142774
1638	96.85	123.47	120.83041	0.008099133
1639	96.9	149.798	137.58938	0.006675657
1640	96.95	175.606	160.36342	0.005694566
1641	97	204.96	189.72932	0.004879001
1642	97.05	248.849	224.95161	0.004018501
1643	97.1	276.419	262.74785	0.003617696
1644	97.15	294.047	295.71858	0.003400817
1645	97.2	299.089	313.10012	0.003343486
1646	97.25	291.15	307.80396	0.003434656
1647	97.3	256.107	283.70925	0.003904618
1648	97.35	223.986	251.78357	0.004464565
1649	97.4	203.713	221.55403	0.004908867
1650	97.45	183.892	198.35202	0.005437974
1651	97.5	173.437	184.50037	0.005765782
1652	97.55	177.58	180.63449	0.005631265
1653	97.6	185.522	186.36156	0.005390196
1654	97.65	201.577	200.45459	0.004960883
1655	97.7	224.495	220.60305	0.004454442
1656	97.75	235.372	242.68554	0.004248594
1657	97.8	242.276	260.56006	0.004127524
1658	97.85	251.267	268.98665	0.00397983
1659	97.9	262.686	268.71831	0.003806826
1660	97.95	264.799	266.34236	0.003776449
1661	98	267.211	268.66439	0.003742361
1662	98.05	279.538	278.94943	0.003577331
1663	98.1	301.455	296.05643	0.003317245
1664	98.15	334.153	314.3162	0.002992641
1665	98.2	349.965	325.20245	0.002857429
1666	98.25	335.918	322.415	0.002976917
1667	98.3	317.34	305.21775	0.003151194
1668	98.35	280.172	276.69322	0.003569236
1669	98.4	247.856	242.0402	0.004034601
1670	98.45	209.833	207.15664	0.004765695
1671	98.5	178.457	176.28155	0.005603591
1672	98.55	145.537	151.19932	0.006871105
1673	98.6	120.652	131.97208	0.0082883
1674	98.65	112.872	117.80893	0.008859593
1675	98.7	97.236	107.62581	0.010284257
1676	98.75	89.879	100.35963	0.011126069
1677	98.8	86.423	95.12402	0.011570994
1678	98.85	79.298	91.25799	0.012610659
1679	98.9	80.295	88.30835	0.012454076
1680	98.95	76.501	85.98233	0.013071725
1681	99	74.156	84.09694	0.013485085
1682	99.05	77.313	82.53654	0.012934435
1683	99.1	77.946	81.22667	0.012829395
1684	99.15	73.271	80.1165	0.013647964
1685	99.2	66.374	79.16903	0.01506614
1686	99.25	70.09	78.35665	0.014267371
1687	99.3	73.329	77.65796	0.013637169
1688	99.35	70.772	77.05607	0.014129882
1689	99.4	69.729	76.53752	0.014341235
1690	99.45	71.788	76.0915	0.013929905
1691	99.5	67.356	75.70934	0.014846487
1692	99.55	70.097	75.38405	0.014265946
1693	99.6	70.926	75.11007	0.014099202
1694	99.65	70.075	74.88299	0.014270425
1695	99.7	72.218	74.69942	0.013846963
1696	99.75	69.214	74.55687	0.014447944
1697	99.8	67.506	74.45364	0.014813498
1698	99.85	67.482	74.3888	0.014818766
1699	99.9	72.452	74.3622	0.013802241
1700	99.95	68.736	74.3745	0.014548417
1701	100	72.841	74.42718	0.013728532
1702	100.05	66.976	74.52275	0.014930721
1703	100.1	66.786	74.66492	0.014973198
1704	100.15	69.888	74.85908	0.014308608
1705	100.2	70.156	75.11287	0.014253948
1706	100.25	74.947	75.43753	0.013342762
1707	100.3	68.813	75.8383	0.014532138
1708	100.35	68.044	76.3673	0.014696373
1709	100.4	72.352	77.05651	0.013821318
1710	100.45	74.524	77.97532	0.013418496
1711	100.5	73.826	79.22668	0.013545363
1712	100.55	75.578	80.95104	0.013231364
1713	100.6	79.037	83.31943	0.012652302
1714	100.65	84.156	86.50976	0.011882694
1715	100.7	86.532	90.66225	0.011556418
1716	100.75	97.512	95.8087	0.010255148
1717	100.8	99.787	101.75517	0.010021345
1718	100.85	103.667	107.88889	0.009646271
1719	100.9	107.962	113.00532	0.009262518
1720	100.95	104.595	115.60307	0.009560686
1721	101	105.766	115.04593	0.009454834
1722	101.05	105.072	112.16361	0.009517283
1723	101.1	100.437	108.55022	0.00995649
1724	101.15	92.825	105.51155	0.01077296
1725	101.2	96.741	103.82992	0.010336879
1726	101.25	97.375	103.98559	0.010269576
1727	101.3	95.624	106.39991	0.010457626
1728	101.35	98.269	111.60006	0.010176149
1729	101.4	111.348	120.30028	0.008980853
1730	101.45	126.935	133.36632	0.007878048
1731	101.5	139.268	151.76013	0.0071804
1732	101.55	170.473	176.11469	0.005866032
1733	101.6	192.636	206.31671	0.005191138
1734	101.65	224.003	240.7974	0.004464226
1735	101.7	260.112	275.81816	0.003844498
1736	101.75	297.502	305.01644	0.003361322
1737	101.8	311.909	320.01667	0.003206063
1738	101.85	304.518	314.36448	0.003283878
1739	101.9	287.485	289.61429	0.003478442
1740	101.95	252.67	254.33829	0.003957731
1741	102	208.892	217.38228	0.004787163
1742	102.05	177.291	184.09782	0.005640444
1743	102.1	146.485	156.65622	0.006826638
1744	102.15	123.951	135.35443	0.008067704
1745	102.2	107.356	119.53942	0.009314803
1746	102.25	95.266	108.15551	0.010496924
1747	102.3	90.733	100.08481	0.011021348
1748	102.35	86.86	94.34766	0.011512779
1749	102.4	80.432	90.18821	0.012432863
1750	102.45	80.132	87.07654	0.012479409
1751	102.5	84.28	84.66614	0.011865211
1752	102.55	74.738	82.73963	0.013380074
1753	102.6	77.257	81.16186	0.012943811
1754	102.65	76.884	79.8467	0.013006607
1755	102.7	74.042	78.7369	0.013505848
1756	102.75	73.715	77.79133	0.01356576
1757	102.8	71.165	76.97948	0.014051851
1758	102.85	74.898	76.27808	0.013351491
1759	102.9	70.162	75.66879	0.014252729
1760	102.95	71.004	75.13699	0.014083714
1761	103	68.715	74.67086	0.014552863
1762	103.05	72.855	74.26077	0.013725894
1763	103.1	72.554	73.8988	0.013782838
1764	103.15	74.647	73.57843	0.013396386
1765	103.2	74.307	73.29422	0.013457682
1766	103.25	71.944	73.04162	0.0138997
1767	103.3	70.687	72.8168	0.014146873
1768	103.35	70.301	72.61653	0.014224549
1769	103.4	74.446	72.43806	0.013432555
1770	103.45	66.952	72.27904	0.014936074
1771	103.5	71.785	72.13746	0.013930487
1772	103.55	67.488	72.01162	0.014817449
1773	103.6	71.187	71.90004	0.014047509
1774	103.65	67.43	71.8014	0.014830194
1775	103.7	68.593	71.71459	0.014578747
1776	103.75	64.222	71.63865	0.015570988
1777	103.8	69.182	71.57276	0.014454627
1778	103.85	71.818	71.51618	0.013924086
1779	103.9	73.377	71.46828	0.013628249
1780	103.95	77.243	71.42853	0.012946157
1781	104	72.025	71.39646	0.013884068
1782	104.05	72.692	71.37167	0.013756672
1783	104.1	72.334	71.35382	0.013824757
1784	104.15	69.033	71.34262	0.014485826
1785	104.2	66.74	71.33783	0.014983518
1786	104.25	66.989	71.33927	0.014927824
1787	104.3	73.352	71.34677	0.013632893
1788	104.35	67.239	71.36023	0.014872321
1789	104.4	68.084	71.37958	0.014687739
1790	104.45	69.894	71.40478	0.01430738
1791	104.5	71.381	71.43583	0.01400933
1792	104.55	76.023	71.47274	0.013153914
1793	104.6	73.81	71.5156	0.0135483
1794	104.65	75.509	71.56449	0.013243454
1795	104.7	76.634	71.61957	0.013049038
1796	104.75	74.209	71.68099	0.013475454
1797	104.8	71.011	71.74897	0.014082325
1798	104.85	69.91	71.82376	0.014304105
1799	104.9	72.291	71.90566	0.013832981
1800	104.95	70.871	71.99501	0.014110144
1801	105	70.072	72.09221	0.014271036
1802	105.05	76.378	72.19769	0.013092775
1803	105.1	77.492	72.31198	0.012904558
1804	105.15	70.392	72.43566	0.01420616
1805	105.2	75.419	72.56937	0.013259258
1806	105.25	76.918	72.71385	0.013000858
1807	105.3	72.362	72.86995	0.013819408
1808	105.35	81.298	73.03861	0.012300426
1809	105.4	77.272	73.22089	0.012941298
1810	105.45	76.247	73.41799	0.01311527
1811	105.5	71.339	73.6313	0.014017578
1812	105.55	79.915	73.86236	0.012513295
1813	105.6	74.531	74.11294	0.013417236
1814	105.65	76.113	74.38286	0.01313836
1815	105.7	71.656	74.66571	0.013955565
1816	105.75	77.616	74.98823	0.012883941
1817	105.8	73.554	75.34027	0.013595454
1818	105.85	76.551	75.72535	0.013063187
1819	105.9	78.883	76.14752	0.012677003
1820	105.95	82.853	76.61152	0.012069569
1821	106	79.683	77.12288	0.012549728
1822	106.05	76.216	77.68808	0.013120605
1823	106.1	79.807	78.31476	0.012530229
1824	106.15	81.048	79.012	0.012338367
1825	106.2	81.342	79.79059	0.012293772
1826	106.25	88.309	80.66347	0.011323874
1827	106.3	84.345	81.64625	0.011856067
1828	106.35	89.873	82.75792	0.011126812
1829	106.4	90.193	84.0217	0.011087335
1830	106.45	89.54	85.46635	0.011168193
1831	106.5	95.868	87.12798	0.010431009
1832	106.55	98.994	89.0529	0.010101622
1833	106.6	105.539	91.30239	0.00947517
1834	106.65	106.539	93.96097	0.009386234
1835	106.7	110.34	97.15089	0.009062897
1836	106.75	114.969	101.05645	0.008697997
1837	106.8	129.142	105.91502	0.007743414
1838	106.85	140.366	112.25979	0.007124232
1839	106.9	147.645	120.70063	0.006773003
1840	106.95	163.62	132.17331	0.006111722
1841	107	178.005	147.91718	0.00561782
1842	107.05	198.578	169.42598	0.005035805
1843	107.1	227.62	198.28696	0.004393287
1844	107.15	263.359	235.88168	0.003797098
1845	107.2	289.502	282.91766	0.003454208
1846	107.25	331.442	338.68878	0.003017119
1847	107.3	362.432	399.84122	0.002759138
1848	107.35	389.734	458.643	0.002565853
1849	107.4	410.836	502.3056	0.002434061
1850	107.45	416.619	517.11267	0.002400275
1851	107.5	398.725	497.56634	0.002507994
1852	107.55	370.518	450.99773	0.002698924
1853	107.6	339.621	391.39117	0.002944459
1854	107.65	308.597	330.79878	0.003240472
1855	107.7	275.316	276.22032	0.00363219
1856	107.75	243.21	230.56373	0.004111673
1857	107.8	208.754	194.29675	0.004790327
1858	107.85	180.516	166.5914	0.005539675
1859	107.9	154.965	146.01881	0.00645307
1860	107.95	143.816	130.99335	0.006953329
1861	108	121.756	120.05202	0.008213148
1862	108.05	118.998	111.99798	0.008403503
1863	108.1	113.749	105.9371	0.008791286
1864	108.15	112.697	101.24604	0.008873351
1865	108.2	106.705	97.51077	0.009371632
1866	108.25	102.964	94.46293	0.009712132
1867	108.3	98.32	91.92831	0.010170871
1868	108.35	94.861	89.79083	0.01054174
1869	108.4	92.74	87.96971	0.010782834
1870	108.45	93.186	86.40611	0.010731226
1871	108.5	96.419	85.05536	0.0103714
1872	108.55	94.847	83.88258	0.010543296
1873	108.6	95.024	82.85995	0.010523657
1874	108.65	92.47	81.96497	0.010814318
1875	108.7	96.722	81.17931	0.010338909
1876	108.75	99.988	80.48788	0.0100012
1877	108.8	102.096	79.87819	0.009794703
1878	108.85	101.877	79.33985	0.009815758
1879	108.9	97.654	78.86418	0.010240236
1880	108.95	87.44	78.44388	0.011436414
1881	109	87.585	78.07282	0.01141748
1882	109.05	87.772	77.74579	0.011393155
1883	109.1	77.301	77.45839	0.012936443
1884	109.15	81.535	77.20691	0.012264672
1885	109.2	76.623	76.98819	0.013050912
1886	109.25	81.144	76.79955	0.01232377
1887	109.3	77.43	76.63876	0.012914891
1888	109.35	79.437	76.50393	0.012588592
1889	109.4	82.727	76.39351	0.012087952
1890	109.45	79.785	76.30623	0.012533684
1891	109.5	79.883	76.24111	0.012518308
1892	109.55	78.888	76.19738	0.012676199
1893	109.6	82.544	76.17453	0.012114751
1894	109.65	74.16	76.17227	0.013484358
1895	109.7	74.547	76.19051	0.013414356
1896	109.75	76.62	76.22939	0.013051423
1897	109.8	75.118	76.28929	0.013312389
1898	109.85	74.271	76.37083	0.013464205
1899	109.9	71.825	76.47489	0.013922729
1900	109.95	75.084	76.60262	0.013318417
1901	110	78.054	76.75554	0.012811643
1902	110.05	81.173	76.93551	0.012319367
1903	110.1	79.488	77.14486	0.012580515
1904	110.15	77.538	77.38643	0.012896902
1905	110.2	81.998	77.6637	0.012195419
1906	110.25	78.699	77.98094	0.012706642
1907	110.3	78.378	78.3434	0.012758682
1908	110.35	75.815	78.75767	0.013190002
1909	110.4	78.66	79.23215	0.012712942
1910	110.45	79.255	79.76635	0.0126175
1911	110.5	79.074	80.3983	0.012646382
1912	110.55	80.704	81.13771	0.01239096
1913	110.6	78.223	82.0155	0.012783964
1914	110.65	74.791	83.07732	0.013370593
1915	110.7	76.798	84.38991	0.013021172
1916	110.75	78.085	86.04824	0.012806557
1917	110.8	82.997	88.18126	0.012048628
1918	110.85	85.245	90.95306	0.011730893
1919	110.9	90.279	94.55558	0.011076773
1920	110.95	99.803	99.19664	0.010019739
1921	111	103.752	105.05715	0.009638368
1922	111.05	108.98	112.24936	0.009175996
1923	111.1	117.331	120.739	0.008522897
1924	111.15	138.088	130.22505	0.007241759
1925	111.2	156.571	139.97053	0.006386879
1926	111.25	161.106	148.67826	0.006207093
1927	111.3	169.325	154.68514	0.005905802
1928	111.35	178.712	156.689	0.005595595
1929	111.4	170.889	154.60254	0.005851752
1930	111.45	164.09	149.69035	0.006094217
1931	111.5	153.747	143.7779	0.006504192
1932	111.55	144.898	138.49369	0.006901407
1933	111.6	143.465	134.9769	0.006970341
1934	111.65	151.357	133.96658	0.006606896
1935	111.7	154.16	135.96242	0.006486767
1936	111.75	164.374	141.32233	0.006083687
1937	111.8	175.671	150.28741	0.005692459
1938	111.85	183.469	162.9476	0.005450512
1939	111.9	200.34	179.14481	0.004991514
1940	111.95	216.626	198.2815	0.004616251
1941	112	232.072	219.00406	0.004309008
1942	112.05	247.006	238.8868	0.004048485
1943	112.1	255.355	254.65032	0.003916117
1944	112.15	261.455	263.56912	0.00382475
1945	112.2	259.832	265.44972	0.003848641
1946	112.25	268.485	263.10104	0.003724603
1947	112.3	264.079	260.72998	0.003786746
1948	112.35	272.719	261.96718	0.003666778
1949	112.4	277.298	268.99056	0.003606229
1950	112.45	287.081	282.38411	0.003483337
1951	112.5	305.067	301.05252	0.003277968
1952	112.55	339.227	321.90834	0.002947879
1953	112.6	341.78	339.74635	0.002925859
1954	112.65	346.29	348.41727	0.002887753
1955	112.7	344.634	343.7877	0.002901629
1956	112.75	333.722	326.28473	0.002996506
1957	112.8	299.147	300.17169	0.003342838
1958	112.85	268.207	270.50813	0.003728463
1959	112.9	243.451	240.93487	0.004107603
1960	112.95	205.681	213.39298	0.004861898
1961	113	184.968	188.8055	0.005406341
1962	113.05	169.131	167.63155	0.005912577
1963	113.1	146.521	150.01402	0.00682496
1964	113.15	134.705	135.78596	0.007423629
1965	113.2	128.167	124.54439	0.00780232
1966	113.25	113.143	115.77687	0.008838373
1967	113.3	106.816	108.96985	0.009361893
1968	113.35	101.629	103.67073	0.009839711
1969	113.4	104.469	99.51055	0.009572218
1970	113.45	96.957	96.20325	0.01031385
1971	113.5	96.831	93.53421	0.010327271
1972	113.55	97.719	91.34583	0.010233424
1973	113.6	95.157	89.52382	0.010508948
1974	113.65	96.512	87.98577	0.010361406
1975	113.7	96.535	86.6721	0.010358937
1976	113.75	89.679	85.53934	0.011150883
1977	113.8	91.942	84.55527	0.010876422
1978	113.85	89.67	83.69548	0.011152002
1979	113.9	92.167	82.94105	0.01084987
1980	113.95	87.787	82.27697	0.011391208
1981	114	77.959	81.69112	0.012827255
1982	114.05	81.609	81.17358	0.01225355
1983	114.1	76.774	80.71611	0.013025243
1984	114.15	80.547	80.31183	0.012415112
1985	114.2	79.962	79.95498	0.01250594
1986	114.25	81.839	79.64067	0.012219113
1987	114.3	81.175	79.36477	0.012319064
1988	114.35	76.182	79.12381	0.01312646
1989	114.4	78.127	78.91481	0.012799672
1990	114.45	77.371	78.73528	0.012924739
1991	114.5	77.344	78.58311	0.012929251
1992	114.55	74.651	78.45653	0.013395668
1993	114.6	79.23	78.35409	0.012621482
1994	114.65	74.88	78.27458	0.013354701
1995	114.7	74.217	78.21705	0.013474002
1996	114.75	74.204	78.18079	0.013476362
1997	114.8	77.056	78.16527	0.012977575
1998	114.85	74.513	78.17017	0.013420477
1999	114.9	75.545	78.19535	0.013237143
2000	114.95	78.551	78.24089	0.012730583
2001	115	77.388	78.30701	0.0129219
2002	115.05	77.359	78.39418	0.012926744
2003	115.1	78.291	78.50302	0.01277286
2004	115.15	81.564	78.6344	0.012260311
2005	115.2	87.169	78.78941	0.011471968
2006	115.25	76.549	78.96943	0.013063528
2007	115.3	77.596	79.17608	0.012887262
2008	115.35	82.629	79.41137	0.012102289
2009	115.4	83.874	79.67763	0.011922646
2010	115.45	85.238	79.97766	0.011731857
2011	115.5	82.085	80.31477	0.012182494
2012	115.55	82.663	80.69286	0.012097311
2013	115.6	83.084	81.11655	0.012036012
2014	115.65	81.893	81.59133	0.012211056
2015	115.7	85.134	82.12375	0.011746188
2016	115.75	82.184	82.72169	0.012167819
2017	115.8	82.331	83.39472	0.012146093
2018	115.85	84.702	84.15469	0.011806097
2019	115.9	83.114	85.0166	0.012031667
2020	115.95	83.458	85.99998	0.011982075
2021	116	86.268	87.13114	0.011591784
2022	116.05	89.929	88.44652	0.011119883
2023	116.1	91.834	89.99769	0.010889213
2024	116.15	94.207	91.8582	0.010614922
2025	116.2	95.467	94.13204	0.010474824
2026	116.25	92.527	96.96305	0.010807656
2027	116.3	101.826	100.54337	0.009820674
2028	116.35	111.571	105.1177	0.008962903
2029	116.4	115.4	110.97969	0.008665511
2030	116.45	117.741	118.45663	0.008493218
2031	116.5	126.77	127.86267	0.007888302
2032	116.55	145.173	139.51974	0.006888333
2033	116.6	162.42	153.59105	0.006156877
2034	116.65	174.516	170.05508	0.005730134
2035	116.7	180.659	188.54762	0.00553529
2036	116.75	199.262	208.1522	0.005018518
2037	116.8	217.705	227.16538	0.004593372
2038	116.85	239.408	243.06638	0.00417697
2039	116.9	245.582	253.09893	0.00407196
2040	116.95	250.135	255.53791	0.003997841
2041	117	245.85	250.7766	0.004067521
2042	117.05	227.172	241.17494	0.004401951
2043	117.1	222.781	229.86658	0.004488713
2044	117.15	229.599	219.63037	0.00435542
2045	117.2	222.564	212.4213	0.00449309
2046	117.25	212.205	209.38294	0.004712424
2047	117.3	210.821	211.04106	0.00474336
2048	117.35	222.555	217.36396	0.004493271
2049	117.4	232.337	227.78023	0.004304093
2050	117.45	231.214	241.0652	0.004324998
2051	117.5	249.277	255.20182	0.004011602
2052	117.55	257.976	267.51512	0.00387633
2053	117.6	259.888	275.38626	0.003847811
2054	117.65	255.375	277.42377	0.00391581
2055	117.7	260.644	274.17504	0.003836651
2056	117.75	253.112	267.66032	0.00395082
2057	117.8	262.838	260.17738	0.003804625
2058	117.85	260	253.26136	0.003846154
2059	117.9	251.359	247.28624	0.003978374
2060	117.95	248.48	241.54624	0.004024469
2061	118	247.453	234.68843	0.004041171
2062	118.05	236.292	225.51921	0.004232052
2063	118.1	221.782	213.67989	0.004508932
2064	118.15	220.238	199.744	0.004540543
2065	118.2	202.531	184.78835	0.004937516
2066	118.25	184.712	169.90599	0.005413833
2067	118.3	175.361	155.93772	0.005702522
2068	118.35	157.917	143.40492	0.00633244
2069	118.4	145.475	132.54778	0.006874033
2070	118.45	136.472	123.39967	0.00732751
2071	118.5	126.044	115.86014	0.007933737
2072	118.55	116.359	109.75284	0.008594092
2073	118.6	113.11	104.86748	0.008840951
2074	118.65	109.34	100.98906	0.009145784
2075	118.7	106.862	97.91727	0.009357863
2076	118.75	103.873	95.47772	0.009627141
2077	118.8	98.725	93.52677	0.010129147
2078	118.85	97.32	91.95118	0.01027538
2079	118.9	94.402	90.66489	0.010592996
2080	118.95	93.421	89.60437	0.010704231
2081	119	93.93	88.72346	0.010646226
2082	119.05	94.427	87.98894	0.010590191
2083	119.1	87.505	87.37677	0.011427918
2084	119.15	88.719	86.86943	0.011271543
2085	119.2	88.503	86.45393	0.011299052
2086	119.25	87.664	86.12054	0.011407191
2087	119.3	85.415	85.86188	0.011707546
2088	119.35	84.479	85.67241	0.011837261
2089	119.4	88.288	85.54805	0.011326568
2090	119.45	87.328	85.48598	0.011451081
2091	119.5	86.858	85.48453	0.011513044
2092	119.55	86.357	85.54308	0.011579837
2093	119.6	81.829	85.6621	0.012220606
2094	119.65	89.866	85.8433	0.011127679
2095	119.7	88.288	86.08975	0.011326568
2096	119.75	87.849	86.40631	0.011383169
2097	119.8	90.352	86.80004	0.011067824
2098	119.85	87.402	87.28096	0.011441386
2099	119.9	89.667	87.86295	0.011152375
2100	119.95	90.411	88.5648	0.011060601
2101	120	86.622	89.41145	0.011544411
2102	120.05	84.373	90.43504	0.011852133
2103	120.1	92.972	91.6758	0.010755927
2104	120.15	93.236	93.18239	0.010725471
2105	120.2	91.979	95.01156	0.010872047
2106	120.25	90.406	97.22701	0.011061213
2107	120.3	95.311	99.89743	0.010491968
2108	120.35	99.23	103.09329	0.010077598
2109	120.4	102.118	106.88161	0.009792593
2110	120.45	107.698	111.31648	0.009285223
2111	120.5	111.779	116.42265	0.008946224
2112	120.55	125.237	122.17163	0.007984861
2113	120.6	130.066	128.45976	0.007688404
2114	120.65	133.093	135.11656	0.007513543
2115	120.7	138.412	141.97001	0.007224807
2116	120.75	143.02	148.95324	0.006992029
2117	120.8	159.13	156.1716	0.00628417
2118	120.85	164.323	163.83941	0.006085575
2119	120.9	168.445	172.11475	0.005936656
2120	120.95	183.089	180.91822	0.005461825
2121	121	198.822	189.80385	0.005029624
2122	121.05	201.563	197.94265	0.004961228
2123	121.1	199.04	204.30621	0.005024116
2124	121.15	204.471	208.09563	0.004890669
2125	121.2	214.314	209.19591	0.004666051
2126	121.25	211.327	208.34033	0.004732003
2127	121.3	204.334	206.84619	0.004893948
2128	121.35	211.629	206.16775	0.00472525
2129	121.4	210.711	207.56383	0.004745837
2130	121.45	216.307	211.96565	0.004623059
2131	121.5	220.255	219.9671	0.004540192
2132	121.55	228.555	231.83652	0.004375314
2133	121.6	245.35	247.4889	0.00407581
2134	121.65	267.346	266.3999	0.003740471
2135	121.7	300.054	287.49257	0.003332733
2136	121.75	310.62	309.10648	0.003219368
2137	121.8	336.47	329.22796	0.002972033
2138	121.85	355.296	346.0539	0.002814555
2139	121.9	361.914	358.59675	0.002763087
2140	121.95	371.457	366.81463	0.002692102
2141	122	376.185	371.08824	0.002658267
2142	122.05	374.934	371.50306	0.002667136
2143	122.1	367.533	367.57755	0.002720844
2144	122.15	370.175	358.70139	0.002701425
2145	122.2	363.85	344.90786	0.002748385
2146	122.25	341.615	327.3025	0.002927272
2147	122.3	330.799	307.78387	0.003022984
2148	122.35	311.537	288.43199	0.003209892
2149	122.4	282.557	270.85812	0.003539109
2150	122.45	259.344	256.02295	0.003855883
2151	122.5	237.003	244.20538	0.004219356
2152	122.55	239.484	235.08325	0.004175644
2153	122.6	227.369	227.84046	0.004398137
2154	122.65	221.93	221.34221	0.004505925
2155	122.7	222.263	214.44379	0.004499174
2156	122.75	206.737	206.37449	0.004837064
2157	122.8	196.489	196.98344	0.005089343
2158	122.85	182.403	186.68304	0.005482366
2159	122.9	176.277	176.16944	0.00567289
2160	122.95	170.412	166.13798	0.005868131
2161	123	159.487	157.12753	0.006270104
2162	123.05	152.163	149.48857	0.0065719
2163	123.1	141.418	143.41201	0.007071236
2164	123.15	148.624	138.96875	0.006728388
2165	123.2	148.73	136.13823	0.006723593
2166	123.25	139.365	134.823	0.007175403
2167	123.3	146.897	134.85057	0.006807491
2168	123.35	145.726	135.96307	0.006862193
2169	123.4	152.008	137.79689	0.006578601
2170	123.45	154.307	139.86377	0.006480587
2171	123.5	155.228	141.56487	0.006442137
2172	123.55	154.028	142.27943	0.006492326
2173	123.6	154.689	141.53232	0.006464584
2174	123.65	151.426	139.15876	0.006603886
2175	123.7	148.267	135.34669	0.006744589
2176	123.75	137.349	130.52622	0.007280723
2177	123.8	132.936	125.19523	0.007522417
2178	123.85	126.776	119.78627	0.007887928
2179	123.9	115.671	114.61147	0.008645209
2180	123.95	108.829	109.8644	0.009188727
2181	124	107.474	105.64534	0.009304576
2182	124.05	103.455	101.98852	0.009666038
2183	124.1	98.981	98.88373	0.010102949
2184	124.15	95.993	96.29225	0.010417426
2185	124.2	94.405	94.15866	0.010592659
2186	124.25	96.942	92.41988	0.010315446
2187	124.3	93.053	91.01197	0.010746564
2188	124.35	90.138	89.87502	0.0110941
2189	124.4	94.663	88.95612	0.010563789
2190	124.45	93.502	88.21077	0.010694958
2191	124.5	90.795	87.60302	0.011013822
2192	124.55	88.236	87.1048	0.011333243
2193	124.6	88.615	86.69472	0.011284771
2194	124.65	88.915	86.35683	0.011246696
2195	124.7	89.395	86.0793	0.011186308
2196	124.75	89.782	85.85344	0.01113809
2197	124.8	86.528	85.67279	0.011556953
2198	124.85	86.188	85.53251	0.011602543
2199	124.9	92.892	85.42891	0.01076519
2200	124.95	84.568	85.35915	0.011824804
2201	125	84.624	85.321	0.011816979
2202	125.05	90.103	85.31273	0.01109841
2203	125.1	84.339	85.33299	0.011856911
2204	125.15	90.204	85.38076	0.011085983
2205	125.2	89.81	85.45527	0.011134618
2206	125.25	87.336	85.55603	0.011450032
2207	125.3	91.166	85.68275	0.010969002
2208	125.35	94.79	85.83534	0.010549636
2209	125.4	93.805	86.01393	0.010660413
2210	125.45	96.902	86.21882	0.010319704
2211	125.5	96.621	86.4505	0.010349717
2212	125.55	89.422	86.70963	0.01118293
2213	125.6	91.097	86.99709	0.01097731
2214	125.65	94.719	87.31394	0.010557544
2215	125.7	91.672	87.66143	0.010908456
2216	125.75	91.953	88.04106	0.010875121
2217	125.8	90.441	88.45453	0.011056932
2218	125.85	94.479	88.90381	0.010584363
2219	125.9	93.717	89.39116	0.010670423
2220	125.95	93.039	89.91912	0.010748181
2221	126	90.385	90.49059	0.011063783
2222	126.05	93.441	91.10884	0.01070194
2223	126.1	88.661	91.77758	0.011278916
2224	126.15	89.737	92.50099	0.011143675
2225	126.2	94.397	93.28383	0.010593557
2226	126.25	92.896	94.13145	0.010764726
2227	126.3	96.392	95.04998	0.010374305
2228	126.35	94.542	96.04636	0.01057731
2229	126.4	100.58	97.12854	0.009942334
2230	126.45	101.437	98.30566	0.009858336
2231	126.5	100.713	99.58828	0.009929205
2232	126.55	98.626	100.98875	0.010139314
2233	126.6	97.736	102.52166	0.010231644
2234	126.65	100.609	104.20454	0.009939469
2235	126.7	101.982	106.05881	0.009805652
2236	126.75	106.248	108.11119	0.009411942
2237	126.8	108.315	110.39567	0.009232332
2238	126.85	116.614	112.95624	0.0085753
2239	126.9	111.845	115.85066	0.008940945
2240	126.95	115.335	119.15523	0.008670395
2241	127	119.2	122.97083	0.008389262
2242	127.05	121.319	127.42999	0.008242732
2243	127.1	131.146	132.70461	0.00762509
2244	127.15	137.809	139.01345	0.00725642
2245	127.2	151.868	146.6284	0.006584666
2246	127.25	156.488	155.87761	0.006390266
2247	127.3	162.859	167.1438	0.006140281
2248	127.35	180.354	180.85574	0.005544651
2249	127.4	197.32	197.47125	0.00506791
2250	127.45	213.966	217.4505	0.00467364
2251	127.5	241.563	241.21945	0.004139707
2252	127.55	277.272	269.12292	0.003606567
2253	127.6	309.365	301.36656	0.003232428
2254	127.65	344.655	337.94423	0.002901452
2255	127.7	389.559	378.54329	0.002567005
2256	127.75	430.73	422.41747	0.00232164
2257	127.8	476.553	468.22284	0.002098402
2258	127.85	519.771	513.842	0.001923924
2259	127.9	567.988	556.28736	0.001760601
2260	127.95	588.465	591.85639	0.001699336
2261	128	623.697	616.7136	0.001603343
2262	128.05	629.579	627.86782	0.001588363
2263	128.1	622.973	624.1479	0.001605206
2264	128.15	593.95	606.61318	0.001683643
2265	128.2	572.374	578.15565	0.001747109
2266	128.25	544.717	542.58713	0.001835816
2267	128.3	501.433	503.7309	0.001994284
2268	128.35	454.158	464.85052	0.002201877
2269	128.4	426.084	428.4516	0.002346955
2270	128.45	395.268	396.32662	0.002529929
2271	128.5	367.181	369.6981	0.002723452
2272	128.55	343.32	349.36809	0.002912734
2273	128.6	331.771	335.83682	0.003014127
2274	128.65	311.016	329.38453	0.003215269
2275	128.7	320.571	330.12233	0.003119434
2276	128.75	318.606	338.01845	0.003138673
2277	128.8	328.58	352.90349	0.003043399
2278	128.85	353.147	374.4549	0.002831682
2279	128.9	375.503	402.15774	0.002663095
2280	128.95	425.841	435.23506	0.002348294
2281	129	453.075	472.54102	0.00220714
2282	129.05	500.918	512.41737	0.001996335
2283	129.1	544.856	552.54245	0.001835347
2284	129.15	577.097	589.85785	0.001732811
2285	129.2	596.179	620.72029	0.001677349
2286	129.25	615.158	641.41736	0.001625599
2287	129.3	642.878	649.01224	0.001555505
2288	129.35	653.007	642.19091	0.001531377
2289	129.4	634.09	621.64906	0.001577063
2290	129.45	590.459	589.796	0.001693598
2291	129.5	551.182	549.98317	0.001814283
2292	129.55	494.491	505.67982	0.002022281
2293	129.6	434.394	459.90332	0.002302058
2294	129.65	403.81	414.97303	0.002476412
2295	129.7	360.883	372.47409	0.002770981
2296	129.75	321.375	333.46269	0.00311163
2297	129.8	289.887	298.46874	0.00344962
2298	129.85	277.845	267.68136	0.003599129
2299	129.9	249.945	241.04646	0.00400088
2300	129.95	241.598	218.33626	0.004139107
2301	130	230.225	199.20955	0.004343577
2302	130.05	218.268	183.26082	0.004581524
2303	130.1	200.335	170.05987	0.004991639
2304	130.15	191.737	159.18263	0.005215477
2305	130.2	176.825	150.23326	0.005655309
2306	130.25	170.296	142.85823	0.005872129
2307	130.3	156.671	136.75333	0.006382802
2308	130.35	148.826	131.66503	0.006719256
2309	130.4	141.796	127.3878	0.007052385
2310	130.45	130.977	123.75891	0.007634928
2311	130.5	132.052	120.65207	0.007572774
2312	130.55	128.609	117.97081	0.007775506
2313	130.6	119.225	115.64243	0.008387503
2314	130.65	113.845	113.61275	0.008783873
2315	130.7	106.228	111.84186	0.009413714
2316	130.75	105.881	110.30084	0.009444565
2317	130.8	106.643	108.96929	0.009377081
2318	130.85	108.895	107.83364	0.009183158
2319	130.9	100.344	106.88578	0.009965718
2320	130.95	99.148	106.12214	0.010085932
2321	131	99.065	105.54287	0.010094382
2322	131.05	101.687	105.15109	0.009834099
2323	131.1	96.314	104.95202	0.010382707
2324	131.15	100.869	104.95212	0.009913849
2325	131.2	95.832	105.15791	0.010434928
2326	131.25	97.991	105.57478	0.010205019
2327	131.3	101.804	106.20555	0.009822797
2328	131.35	97.013	107.04873	0.010307897
2329	131.4	99.333	108.09656	0.010067148
2330	131.45	105.36	109.33241	0.009491268
2331	131.5	103.251	110.72759	0.009685136
2332	131.55	107.714	112.23736	0.009283844
2333	131.6	112.941	113.79714	0.008854181
2334	131.65	119.027	115.32048	0.008401455
2335	131.7	115.62	116.70251	0.008649023
2336	131.75	115.072	117.83194	0.008690211
2337	131.8	120.526	118.61234	0.008296965
2338	131.85	118.875	118.98656	0.008412198
2339	131.9	118.309	118.95397	0.008452442
2340	131.95	117.163	118.57162	0.008535118
2341	132	112.088	117.93991	0.008921562
2342	132.05	107.28	117.18078	0.009321402
2343	132.1	105.81	116.4181	0.009450903
2344	132.15	108.067	115.76554	0.009253519
2345	132.2	106.201	115.32225	0.009416107
2346	132.25	101.555	115.17399	0.009846881
2347	132.3	99.283	115.39682	0.010072218
2348	132.35	107.67	116.06127	0.009287638
2349	132.4	105.422	117.23601	0.009485686
2350	132.45	105.378	118.99037	0.009489647
2351	132.5	110.793	121.39566	0.009025841
2352	132.55	116.592	124.52538	0.008576918
2353	132.6	116.733	128.45418	0.008566558
2354	132.65	113.847	133.25565	0.008783718
2355	132.7	118.191	138.99895	0.008460881
2356	132.75	126.702	145.74422	0.007892535
2357	132.8	134.401	153.53657	0.007440421
2358	132.85	144.724	162.39828	0.006909704
2359	132.9	150.52	172.31865	0.006643635
2360	132.95	159.527	183.24056	0.006268531
2361	133	176.313	195.04323	0.005671732
2362	133.05	195.418	207.52241	0.005117236
2363	133.1	209.305	220.37268	0.004777717
2364	133.15	222.001	233.18225	0.004504484
2365	133.2	229.729	245.45548	0.004352955
2366	133.25	245.478	256.67576	0.004073685
2367	133.3	267.457	266.40098	0.003738919
2368	133.35	272.557	274.36665	0.003668957
2369	133.4	274.627	280.54428	0.003641303
2370	133.45	279.957	285.12552	0.003571977
2371	133.5	283.652	288.43909	0.003525447
2372	133.55	280.031	290.84171	0.003571033
2373	133.6	285.096	292.63078	0.00350759
2374	133.65	287.388	294.0081	0.003479616
2375	133.7	288.13	295.09499	0.003470656
2376	133.75	281.376	295.97485	0.003553963
2377	133.8	286.147	296.72811	0.003494707
2378	133.85	288.93	297.43386	0.003461046
2379	133.9	301.211	298.1356	0.003319932
2380	133.95	306.789	298.79134	0.003259569
2381	134	313.108	299.23741	0.003193786
2382	134.05	312.811	299.19257	0.003196819
2383	134.1	327.114	298.31376	0.003057038
2384	134.15	320.229	296.29278	0.003122765
2385	134.2	335.521	292.96117	0.002980439
2386	134.25	326.524	288.35744	0.003062562
2387	134.3	305.471	282.72807	0.003273633
2388	134.35	290.3	276.46741	0.003444712
2389	134.4	278.984	270.02729	0.003584435
2390	134.45	268.909	263.83123	0.00371873
2391	134.5	258.891	258.21523	0.003862629
2392	134.55	252.171	253.40028	0.003965563
2393	134.6	236.075	249.49413	0.004235942
2394	134.65	221.889	246.51682	0.004506758
2395	134.7	225.99	244.44304	0.004424975
2396	134.75	228.226	243.25059	0.004381622
2397	134.8	231.202	242.96005	0.004325222
2398	134.85	227.351	243.65244	0.004398485
2399	134.9	216.956	245.45641	0.00460923
2400	134.95	217.828	248.51747	0.004590778
2401	135	220.293	252.95843	0.004539409
2402	135.05	233.367	258.84054	0.004285096
2403	135.1	240.713	266.13255	0.004154325
2404	135.15	254.821	274.68749	0.003924323
2405	135.2	261.836	284.22642	0.003819185
2406	135.25	274.011	294.33954	0.003649489
2407	135.3	306.502	304.50221	0.003262621
2408	135.35	306.182	314.11817	0.003266031
2409	135.4	316.775	322.59056	0.003156815
2410	135.45	325.63	329.40317	0.00307097
2411	135.5	338.723	334.17862	0.002952265
2412	135.55	345.726	336.69331	0.002892464
2413	135.6	352.465	336.84269	0.002837161
2414	135.65	358.807	334.58755	0.002787014
2415	135.7	345.662	329.91713	0.002893
2416	135.75	336.26	322.85259	0.002973889
2417	135.8	324.072	313.48529	0.003085734
2418	135.85	315.585	302.02135	0.003168718
2419	135.9	314.615	288.80027	0.003178488
2420	135.95	294.149	274.27317	0.003399638
2421	136	274.033	258.94988	0.003649196
2422	136.05	255.118	243.33693	0.003919755
2423	136.1	241.239	227.88671	0.004145267
2424	136.15	216.059	212.96725	0.004628365
2425	136.2	198.148	198.85242	0.005046733
2426	136.25	188.978	185.72662	0.005291621
2427	136.3	169.409	173.69727	0.005902874
2428	136.35	162.961	162.80986	0.006136438
2429	136.4	152.943	153.06108	0.006538384
2430	136.45	145.747	144.40882	0.006861205
2431	136.5	138.536	136.80707	0.00721834
2432	136.55	130.586	130.17053	0.007657789
2433	136.6	128.334	124.41053	0.007792167
2434	136.65	122.956	119.43531	0.008132991
2435	136.7	118.97	115.15309	0.00840548
2436	136.75	111.824	111.47524	0.008942624
2437	136.8	111.227	108.31866	0.008990623
2438	136.85	105.531	105.60731	0.009475889
2439	136.9	94.529	103.27321	0.010578764
2440	136.95	98.725	101.25673	0.010129147
2441	137	100.754	99.50655	0.009925164
2442	137.05	103.308	97.97915	0.009679792
2443	137.1	94.674	96.63819	0.010562562
2444	137.15	88.574	95.45368	0.011289995
2445	137.2	90.547	94.39273	0.011043988
2446	137.25	92.887	93.44373	0.010765769
2447	137.3	89.384	92.59793	0.011187685
2448	137.35	85.894	91.83686	0.011642257
2449	137.4	85.478	91.14873	0.011698917
2450	137.45	85.826	90.52519	0.011651481
2451	137.5	88.355	89.95954	0.011317979
2452	137.55	86.552	89.44637	0.011553748
2453	137.6	83.507	88.98092	0.011975044
2454	137.65	84.57	88.55884	0.011824524
2455	137.7	80.911	88.17899	0.012359259
2456	137.75	79.042	87.83813	0.012651502
2457	137.8	83.936	87.53408	0.011913839
2458	137.85	85.674	87.26523	0.011672153
2459	137.9	83.653	87.03038	0.011954144
2460	137.95	84.988	86.82869	0.011766367
2461	138	85.229	86.65968	0.011733096
2462	138.05	85.922	86.5233	0.011638463
2463	138.1	85.338	86.41993	0.011718109
2464	138.15	83.881	86.35045	0.011921651
2465	138.2	84.982	86.31633	0.011767198
2466	138.25	83.425	86.31972	0.011986815
2467	138.3	84.85	86.36359	0.011785504
2468	138.35	85.384	86.45186	0.011711796
2469	138.4	81.458	86.58957	0.012276265
2470	138.45	80.8	86.78307	0.012376238
2471	138.5	81.934	87.04018	0.012204945
2472	138.55	82.815	87.3704	0.012075107
2473	138.6	82.016	87.78503	0.012192743
2474	138.65	81.74	88.29732	0.012233912
2475	138.7	83.782	88.92249	0.011935738
2476	138.75	85.12	89.67776	0.01174812
2477	138.8	82.451	90.58214	0.012128416
2478	138.85	84.7	91.65621	0.011806375
2479	138.9	85.393	92.92168	0.011710562
2480	138.95	85.161	94.40079	0.011742464
2481	139	88.252	96.11557	0.011331188
2482	139.05	87.094	98.08692	0.011481847
2483	139.1	85.472	100.33349	0.011699738
2484	139.15	93.563	102.87047	0.010687986
2485	139.2	91.443	105.7082	0.010935774
2486	139.25	92.973	108.85062	0.010755811
2487	139.3	93.324	112.29347	0.010715357
2488	139.35	103.583	116.02229	0.009654094
2489	139.4	107.466	120.01002	0.009305269
2490	139.45	114.071	124.21403	0.00876647
2491	139.5	124.364	128.57288	0.008040912
2492	139.55	127.429	133.00266	0.007847507
2493	139.6	138.901	137.39395	0.007199372
2494	139.65	144.431	141.61052	0.006923721
2495	139.7	156.426	145.49174	0.006392799
2496	139.75	170.063	148.86082	0.005880174
2497	139.8	173.106	151.54004	0.005776807
2498	139.85	178.545	153.37193	0.005600829
2499	139.9	185.145	154.24234	0.005401172
2500	139.95	179.066	154.09896	0.005584533
2501	140	176.769	152.95975	0.005657101
2502	140.05	166.803	150.90854	0.005995096
2503	140.1	155.878	148.07984	0.006415273
2504	140.15	148.716	144.63818	0.006724226
2505	140.2	137.266	140.75747	0.007285125
2506	140.25	126.46	136.60445	0.007907639
2507	140.3	124.987	132.32801	0.008000832
2508	140.35	115.833	128.05382	0.008633118
2509	140.4	112.574	123.88323	0.008883046
2510	140.45	105.668	119.89468	0.009463603
2511	140.5	99.359	116.14642	0.010064514
2512	140.55	98.502	112.67967	0.010152078
2513	140.6	93.236	109.52159	0.010725471
2514	140.65	88.11	106.68803	0.01134945
2515	140.7	93.523	104.1859	0.010692557
2516	140.75	90.168	102.01522	0.011090409
2517	140.8	91.269	100.17098	0.010956623
2518	140.85	90.528	98.64474	0.011046306
2519	140.9	91.803	97.42607	0.01089289
2520	140.95	88.43	96.50378	0.01130838
2521	141	88.106	95.86701	0.011349965
2522	141.05	91.81	95.50596	0.01089206
2523	141.1	91.609	95.41261	0.010915958
2524	141.15	95.409	95.58097	0.010481192
2525	141.2	93.216	96.00731	0.010727772
2526	141.25	92.427	96.69	0.010819349
2527	141.3	91.518	97.62929	0.010926812
2528	141.35	92.566	98.82682	0.010803103
2529	141.4	97.899	100.28504	0.010214609
2530	141.45	98.232	102.00643	0.010179982
2531	141.5	103.008	103.99272	0.009707984
2532	141.55	101.079	106.24383	0.009893252
2533	141.6	104.196	108.75683	0.009597297
2534	141.65	109.013	111.52467	0.009173218
2535	141.7	109.989	114.53472	0.009091818
2536	141.75	112.999	117.76704	0.008849636
2537	141.8	119.521	121.19258	0.008366731
2538	141.85	125.952	124.77108	0.007939533
2539	141.9	129.633	128.44938	0.007714085
2540	141.95	136.95	132.16022	0.007301935
2541	142	140.646	135.82264	0.007110049
2542	142.05	147.792	139.34458	0.006766266
2543	142.1	156.247	142.62839	0.006400123
2544	142.15	162.179	145.57921	0.006166026
2545	142.2	159.919	148.11489	0.006253166
2546	142.25	166.769	150.17553	0.005996318
2547	142.3	165.814	151.72983	0.006030854
2548	142.35	163.471	152.77632	0.006117293
2549	142.4	177.166	153.33911	0.005644424
2550	142.45	173.461	153.45926	0.005764985
2551	142.5	163.611	153.18421	0.006112058
2552	142.55	164.18	152.55781	0.006090876
2553	142.6	173.067	151.61301	0.005778109
2554	142.65	161.865	150.3685	0.006177988
2555	142.7	162.575	148.82966	0.006151007
2556	142.75	159.129	146.99324	0.00628421
2557	142.8	153.425	144.85454	0.006517843
2558	142.85	151.003	142.41505	0.006622385
2559	142.9	153.135	139.6886	0.006530186
2560	142.95	144.877	136.70437	0.006902407
2561	143	138.514	133.50637	0.007219487
2562	143.05	136.466	130.14989	0.007327833
2563	143.1	132.395	126.69626	0.007553155
2564	143.15	132.116	123.20735	0.007569106
2565	143.2	118.001	119.741	0.008474504
2566	143.25	112.74	116.34779	0.008869966
2567	143.3	111.267	113.06939	0.008987391
2568	143.35	107.624	109.93811	0.009291608
2569	143.4	101.639	106.97738	0.009838743
2570	143.45	96.274	104.20271	0.01038702
2571	143.5	99.908	101.6229	0.010009208
2572	143.55	94.279	99.24122	0.010606816
2573	143.6	95.512	97.05657	0.010469889
2574	143.65	94.632	95.06434	0.01056725
2575	143.7	89.108	93.25731	0.011222337
2576	143.75	93.935	91.6263	0.010645659
2577	143.8	90.423	90.15595	0.011059133
2578	143.85	94.347	88.83842	0.010599171
2579	143.9	93.093	87.66713	0.010741946
2580	143.95	90.718	86.62653	0.011023171
2581	144	91.42	85.70346	0.010938525
2582	144.05	91.428	84.88583	0.010937568
2583	144.1	86.538	84.16229	0.011555617
2584	144.15	87.556	83.52216	0.011421262
2585	144.2	89.797	82.95551	0.011136229
2586	144.25	90.4	82.45325	0.011061947
2587	144.3	93.699	82.00716	0.010672472
2588	144.35	95.079	81.60989	0.01051757
2589	144.4	91.481	81.25494	0.010931232
2590	144.45	90.87	80.93662	0.011004732
2591	144.5	90.828	80.64997	0.011009821
2592	144.55	87.839	80.39074	0.011384465
2593	144.6	90.973	80.1553	0.010992272
2594	144.65	90.643	79.94054	0.011032292
2595	144.7	87.394	79.74384	0.011442433
2596	144.75	89.209	79.56299	0.011209631
2597	144.8	90.991	79.39612	0.010990098
2598	144.85	93.358	79.24167	0.010711455
2599	144.9	95.081	79.09831	0.010517348
2600	144.95	91.088	78.95602	0.010978395
2601	145	93.671	78.82947	0.010675663



_refine_ls_goodness_of_fit_all
1.70
_journal_year
2009
_journal_page_last
299
_symmetry_space_group_name_H-M
'R 3 c'
_pd_char_colour
white
_cell_angle_beta
90
_pd_spec_mount_mode
reflection
_cell_angle_alpha
90
_diffrn_radiation_monochromator
'Ge [115]'
_chemical_formula_sum
'K0.30 Na0.70 Nb1 O3'
_chemical_formula_structural
'K Na (Nb O3)'
_journal_page_first
291
_chemical_formula_weight
168.73
_pd_proc_info_excluded_regions
'145-160\% 2\q'
_pd_meas_2theta_range_max
160
_diffrn_measurement_device_type
D2B
_symmetry_cell_setting
trigonal
_diffrn_ambient_temperature
160
_journal_coeditor_code
WF5039
_pd_meas_2theta_range_inc
0.05
_pd_spec_size_axial
20
_journal_name_full
'Acta Crystallographica, Section B'
_journal_volume
65
_cell_volume
375.384(11)
_journal_issue
3
_pd_spec_mounting
'Vanadium can packed with powder'
_pd_spec_shape
cylinder
_pd_proc_ls_prof_R_factor
0.059
_diffrn_radiation_wavelength
1.60
_pd_spec_size_equat
50
_pd_block_diffractogram_id
KNN30at160K
_pd_spec_size_thick
20
_pd_meas_scan_method
step
_diffrn_radiation_type
Neutron
_journal_paper_category
FA
_journal_date_accepted
2009-03-25
_pd_proc_ls_prof_wR_factor
0.079
_cell_angle_gamma
120
_refine_ls_number_parameters
24
_computing_structure_refinement
'TOPAS Academic'
_cell_formula_units_Z
6
_cell_length_a
5.59575(6)
_cell_length_b
5.59575(6)
_pd_meas_number_of_points
2601
_cell_length_c
13.8429(3)
_chemical_name_systematic
'Sodium Potassium Niobate'
_pd_proc_ls_prof_wR_expected
0.027
_journal_date_recd_electronic
2008-12-13
_pd_meas_2theta_range_min
0.10
loop_
_symmetry_equiv_pos_as_xyz

;-x+y, -x, z
;

;-x+y, y, z+1/2
;

;-x+y+1/3, -x-1/3, z-1/3
;

;-x+y+1/3, y-1/3, z+1/6
;

;-x+y-1/3, -x+1/3, z+1/3
;

;-x+y-1/3, y+1/3, z-1/6
;

;-y, -x, z+1/2
;

;-y, x-y, z
;

;-y+1/3, -x-1/3, z+1/6
;

;-y+1/3, x-y-1/3, z-1/3
;

;-y-1/3, -x+1/3, z-1/6
;

;-y-1/3, x-y+1/3, z+1/3
;

;x, y, z
;

;x, x-y, z+1/2
;

;x+1/3, y-1/3, z-1/3
;

;x+1/3, x-y-1/3, z+1/6
;

;x-1/3, y+1/3, z+1/3
;

;x-1/3, x-y+1/3, z-1/6
;

loop_
_atom_type_symbol
Na1+
K1+
Nb5+
O2-

loop_
_atom_site_type_symbol
_atom_site_label
_atom_site_fract_x
_atom_site_fract_y
_atom_site_fract_z
_atom_site_occupancy
Na+1 Na1 0 0 0.2660(4) 0.7
K+1 K1 0 0 0.2660(4) 0.3
Nb+5 Nb1 0 0 0.01559(13) 1
O-2 O1 0.1360(3) 0.3365(4) 0.08333 1

