data_KNN05at150K

_pd_block_id     KNN05at150K
_pd_proc_2theta_range_min  15 
_pd_proc_2theta_range_max 145
_pd_proc_ls_background_function   'Chebychev with six coefficients' 

loop_
      
_pd_data_point_id                           
      
_pd_meas_2theta_corrected     
_pd_meas_intensity_total                     
      
_pd_calc_intensity_total                     
      
_pd_proc_ls_weight     
1	15	117.768	121.69372	0.008491271
2	15.05	124.629	121.66914	0.008023815
3	15.1	121.683	121.64456	0.008218075
4	15.15	119.899	121.61998	0.008340353
5	15.2	123.56	121.5954	0.008093234
6	15.25	121.015	121.57084	0.008263438
7	15.3	117.336	121.54628	0.008522534
8	15.35	122.19	121.52174	0.008183976
9	15.4	121.032	121.49721	0.008262278
10	15.45	120.844	121.47269	0.008275132
11	15.5	122.666	121.44819	0.008152218
12	15.55	118.8	121.42372	0.008417508
13	15.6	118.324	121.39926	0.008451371
14	15.65	117.755	121.37484	0.008492208
15	15.7	119.515	121.35044	0.008367151
16	15.75	119.743	121.32607	0.008351219
17	15.8	116.8	121.30173	0.008561644
18	15.85	125.036	121.27744	0.007997697
19	15.9	121.57	121.25318	0.008225714
20	15.95	122.241	121.22896	0.008180561
21	16	121.913	121.20478	0.008202571
22	16.05	116.226	121.18066	0.008603927
23	16.1	123.059	121.15658	0.008126183
24	16.15	124.701	121.13257	0.008019182
25	16.2	114.548	121.1086	0.008729965
26	16.25	124.105	121.0847	0.008057693
27	16.3	123.913	121.06087	0.008070178
28	16.35	121.886	121.0371	0.008204388
29	16.4	120.779	121.0134	0.008279585
30	16.45	122.441	120.98978	0.008167199
31	16.5	118.918	120.96624	0.008409156
32	16.55	125.247	120.94279	0.007984223
33	16.6	121.61	120.91942	0.008223008
34	16.65	122.13	120.89614	0.008187996
35	16.7	120.36	120.87297	0.008308408
36	16.75	115.631	120.84989	0.0086482
37	16.8	120.219	120.82693	0.008318153
38	16.85	118.252	120.80407	0.008456517
39	16.9	124.132	120.78133	0.00805594
40	16.95	122.534	120.75872	0.008161
41	17	118.76	120.73623	0.008420344
42	17.05	116.243	120.71388	0.008602669
43	17.1	122.421	120.69167	0.008168533
44	17.15	119.329	120.6696	0.008380193
45	17.2	121.438	120.64769	0.008234655
46	17.25	119.347	120.62594	0.008378929
47	17.3	120.341	120.60435	0.00830972
48	17.35	118.359	120.58294	0.008448872
49	17.4	120.811	120.56171	0.008277392
50	17.45	119.613	120.54068	0.008360295
51	17.5	120.091	120.51983	0.008327019
52	17.55	120.228	120.4992	0.00831753
53	17.6	117.109	120.47878	0.008539053
54	17.65	115.066	120.45859	0.008690664
55	17.7	117.377	120.43863	0.008519557
56	17.75	113.439	120.41897	0.00881531
57	17.8	124.019	120.39969	0.008063281
58	17.85	119.875	120.38085	0.008342023
59	17.9	124.051	120.36248	0.008061201
60	17.95	125.906	120.34464	0.007942433
61	18	117.766	120.32741	0.008491415
62	18.05	118.802	120.31091	0.008417367
63	18.1	115.154	120.29534	0.008684023
64	18.15	121.629	120.28112	0.008221723
65	18.2	121.302	120.26949	0.008243887
66	18.25	119.22	120.26469	0.008387854
67	18.3	117.892	120.24875	0.00848234
68	18.35	122.517	120.2333	0.008162133
69	18.4	125.302	120.21835	0.007980719
70	18.45	122.854	120.20396	0.008139743
71	18.5	118.628	120.19018	0.008429713
72	18.55	119.091	120.17707	0.00839694
73	18.6	121.82	120.16477	0.008208833
74	18.65	120.849	120.15354	0.008274789
75	18.7	118.342	120.14461	0.008450085
76	18.75	122.506	120.13592	0.008162865
77	18.8	116.82	120.12499	0.008560178
78	18.85	117.975	120.1147	0.008476372
79	18.9	123.589	120.10508	0.008091335
80	18.95	121.488	120.09616	0.008231266
81	19	119.593	120.08798	0.008361693
82	19.05	119.138	120.08057	0.008393628
83	19.1	120.885	120.07397	0.008272325
84	19.15	123.399	120.06823	0.008103793
85	19.2	116.549	120.06338	0.008580082
86	19.25	121.501	120.05946	0.008230385
87	19.3	114.196	120.05653	0.008756874
88	19.35	122.481	120.05465	0.008164532
89	19.4	118.956	120.05385	0.00840647
90	19.45	116.327	120.0542	0.008596457
91	19.5	116.247	120.05577	0.008602373
92	19.55	122.02	120.05861	0.008195378
93	19.6	121.956	120.0628	0.008199679
94	19.65	116.076	120.06841	0.008615045
95	19.7	115.498	120.07552	0.008658159
96	19.75	121.902	120.08421	0.008203311
97	19.8	127.648	120.09459	0.007834044
98	19.85	123.645	120.10674	0.00808767
99	19.9	123.911	120.12078	0.008070309
100	19.95	121.204	120.1368	0.008250553
101	20	118.575	120.15495	0.008433481
102	20.05	124.482	120.17534	0.00803329
103	20.1	122.732	120.19811	0.008147834
104	20.15	118.823	120.22343	0.008415879
105	20.2	118.727	120.25145	0.008422684
106	20.25	123.015	120.28235	0.00812909
107	20.3	124.871	120.31632	0.008008265
108	20.35	124.633	120.35358	0.008023557
109	20.4	120.597	120.39434	0.00829208
110	20.45	119.708	120.43886	0.008353661
111	20.5	122.003	120.4874	0.00819652
112	20.55	118.428	120.54025	0.008443949
113	20.6	119.17	120.59774	0.008391374
114	20.65	114.646	120.66021	0.008722502
115	20.7	117.943	120.72805	0.008478672
116	20.75	125.021	120.80168	0.007998656
117	20.8	118.223	120.88156	0.008458591
118	20.85	122.925	120.96821	0.008135042
119	20.9	121.377	121.06217	0.008238793
120	20.95	118.162	121.16409	0.008462958
121	21	120.788	121.27465	0.008278968
122	21.05	119.7	121.39462	0.008354219
123	21.1	116.514	121.52486	0.00858266
124	21.15	127.228	121.66633	0.007859905
125	21.2	120.369	121.8201	0.008307787
126	21.25	127.288	121.98737	0.0078562
127	21.3	118.505	122.16951	0.008438463
128	21.35	118.211	122.36804	0.00845945
129	21.4	115.06	122.58471	0.008691118
130	21.45	120.575	122.8215	0.008293593
131	21.5	120.765	123.08067	0.008280545
132	21.55	122.657	123.36481	0.008152816
133	21.6	115.583	123.6769	0.008651791
134	21.65	120.337	124.02039	0.008309996
135	21.7	117.812	124.39928	0.0084881
136	21.75	117.806	124.81824	0.008488532
137	21.8	127.073	125.28278	0.007869492
138	21.85	128.546	125.79935	0.007779316
139	21.9	126.441	126.37568	0.007908827
140	21.95	129.055	127.02096	0.007748634
141	22	131.798	127.74633	0.007587369
142	22.05	137.5	128.56534	0.007272727
143	22.1	137.031	129.49471	0.007297619
144	22.15	139.926	130.55559	0.007146635
145	22.2	141.812	131.77584	0.007051589
146	22.25	148.962	133.19479	0.006713121
147	22.3	151.841	134.87318	0.006585837
148	22.35	153.135	136.91275	0.006530186
149	22.4	154.509	139.49035	0.006472115
150	22.45	168.369	142.9085	0.005939336
151	22.5	169.295	147.65544	0.005906849
152	22.55	170.708	154.45482	0.005857956
153	22.6	182.912	164.27511	0.00546711
154	22.65	191.995	178.26831	0.005208469
155	22.7	200.826	197.61993	0.004979435
156	22.75	220.296	223.34333	0.004539347
157	22.8	237.198	256.15946	0.004215887
158	22.85	261.151	296.60909	0.003829202
159	22.9	280.001	345.35642	0.003571416
160	22.95	327.332	403.56666	0.003055002
161	23	377.211	473.31207	0.002651036
162	23.05	433.154	557.94718	0.002308648
163	23.1	508.772	662.21427	0.001965517
164	23.15	614.412	791.53478	0.001627572
165	23.2	768.456	949.74068	0.001301311
166	23.25	967.808	1134.87733	0.001033263
167	23.3	1174.286	1333.99681	0.000851581
168	23.35	1386.984	1519.49487	0.000720989
169	23.4	1568.471	1650.12455	0.000637564
170	23.45	1665.901	1679.635	0.000600276
171	23.5	1612.747	1577.70148	0.00062006
172	23.55	1432.332	1358.65684	0.000698162
173	23.6	1179.889	1081.30886	0.000847537
174	23.65	915.691	809.45147	0.001092071
175	23.7	717.693	583.37114	0.001393353
176	23.75	574.662	417.55901	0.001740153
177	23.8	469.653	308.08171	0.002129232
178	23.85	379.19	241.66362	0.0026372
179	23.9	310.654	203.47564	0.003219015
180	23.95	264.826	181.6617	0.003776064
181	24	226.402	168.54817	0.004416922
182	24.05	190.55	159.89284	0.005247966
183	24.1	174.644	153.6036	0.005725934
184	24.15	148.806	148.70646	0.006720159
185	24.2	135.265	144.73656	0.007392895
186	24.25	128.816	141.44532	0.007763011
187	24.3	123.544	138.67852	0.008094282
188	24.35	118.961	136.32837	0.008406116
189	24.4	124.44	134.31475	0.008036001
190	24.45	123.425	132.57637	0.008102086
191	24.5	122.979	131.06562	0.00813147
192	24.55	122.583	129.74551	0.008157738
193	24.6	122.262	128.58868	0.008179156
194	24.65	122.665	127.58764	0.008152285
195	24.7	121.906	126.66422	0.008203042
196	24.75	123.106	125.83766	0.008123081
197	24.8	124.553	125.09447	0.008028711
198	24.85	121.905	124.42343	0.008203109
199	24.9	127.741	123.81514	0.00782834
200	24.95	115.447	123.26168	0.008661983
201	25	114.625	122.75636	0.0087241
202	25.05	118.5	122.29346	0.008438819
203	25.1	118.675	121.8681	0.008426375
204	25.15	119.351	121.47607	0.008378648
205	25.2	120.518	121.11375	0.008297516
206	25.25	124.947	120.77799	0.008003393
207	25.3	118.41	120.46606	0.008445233
208	25.35	115.593	120.17555	0.008651043
209	25.4	114.965	119.90436	0.008698299
210	25.45	114.222	119.65065	0.008754881
211	25.5	116.588	119.4128	0.008577212
212	25.55	116.787	119.18942	0.008562597
213	25.6	114.038	118.97943	0.008769007
214	25.65	118.605	118.78176	0.008431348
215	25.7	118.741	118.5955	0.008421691
216	25.75	119.199	118.4199	0.008389332
217	25.8	122.988	118.25447	0.008130875
218	25.85	125.771	118.09923	0.007950958
219	25.9	121.35	117.95737	0.008240626
220	25.95	114.427	117.82219	0.008739196
221	26	118.477	117.68453	0.008440457
222	26.05	123.02	117.55306	0.00812876
223	26.1	119.156	117.42735	0.00839236
224	26.15	120.45	117.30699	0.0083022
225	26.2	118.891	117.19161	0.008411066
226	26.25	115.993	117.08087	0.00862121
227	26.3	116.16	116.97447	0.008608815
228	26.35	120.506	116.87242	0.008298342
229	26.4	115.542	116.77466	0.008654861
230	26.45	122.084	116.68109	0.008191082
231	26.5	118.105	116.59172	0.008467042
232	26.55	115.932	116.5067	0.008625746
233	26.6	113.885	116.42663	0.008780788
234	26.65	123.456	116.3535	0.008100052
235	26.7	119.784	116.30012	0.00834836
236	26.75	115.156	116.22274	0.008683872
237	26.8	111.529	116.14771	0.008966278
238	26.85	119.395	116.07489	0.00837556
239	26.9	120.65	116.00418	0.008288438
240	26.95	110.451	115.93545	0.009053789
241	27	113.763	115.86862	0.008790204
242	27.05	115.039	115.80359	0.008692704
243	27.1	116.028	115.74027	0.008618609
244	27.15	118.345	115.67859	0.008449871
245	27.2	111.824	115.61846	0.008942624
246	27.25	116.507	115.55982	0.008583175
247	27.3	119.7	115.50261	0.008354219
248	27.35	117.008	115.44676	0.008546424
249	27.4	108.101	115.39221	0.009250608
250	27.45	112.527	115.33892	0.008886756
251	27.5	115.89	115.28684	0.008628872
252	27.55	118.529	115.23591	0.008436754
253	27.6	118.719	115.18611	0.008423252
254	27.65	112.565	115.13738	0.008883756
255	27.7	114.121	115.08969	0.008762629
256	27.75	117.547	115.043	0.008507235
257	27.8	117.855	114.9973	0.008485003
258	27.85	114.863	114.95253	0.008706024
259	27.9	114.951	114.90869	0.008699359
260	27.95	116.6	114.86574	0.008576329
261	28	119.249	114.82366	0.008385815
262	28.05	116.399	114.78242	0.008591139
263	28.1	115.375	114.74202	0.008667389
264	28.15	120.463	114.70242	0.008301304
265	28.2	124.863	114.66362	0.008008778
266	28.25	120.655	114.6256	0.008288094
267	28.3	121.607	114.58834	0.008223211
268	28.35	116.448	114.55184	0.008587524
269	28.4	115.659	114.51609	0.008646106
270	28.45	124.678	114.48106	0.008020661
271	28.5	125.306	114.44677	0.007980464
272	28.55	123.601	114.4132	0.008090549
273	28.6	116.934	114.38034	0.008551833
274	28.65	110.593	114.34819	0.009042164
275	28.7	120.089	114.31676	0.008327157
276	28.75	111.825	114.28604	0.008942544
277	28.8	113.463	114.25602	0.008813446
278	28.85	115.529	114.22672	0.008655835
279	28.9	121.604	114.19814	0.008223414
280	28.95	114.364	114.17027	0.00874401
281	29	112.397	114.14313	0.008897035
282	29.05	116.734	114.11673	0.008566484
283	29.1	114.692	114.09107	0.008719004
284	29.15	114.614	114.06616	0.008724938
285	29.2	113.086	114.04201	0.008842828
286	29.25	116.179	114.01864	0.008607408
287	29.3	114.061	113.99607	0.008767239
288	29.35	116.981	113.97431	0.008548397
289	29.4	116.677	113.95338	0.008570669
290	29.45	113.601	113.93331	0.008802739
291	29.5	111.831	113.91411	0.008942064
292	29.55	111.866	113.89582	0.008939267
293	29.6	113.332	113.87845	0.008823633
294	29.65	115.596	113.86205	0.008650818
295	29.7	117.653	113.84664	0.008499571
296	29.75	120.496	113.83227	0.008299031
297	29.8	122.061	113.81898	0.008192625
298	29.85	114.444	113.8068	0.008737898
299	29.9	115.173	113.79578	0.008682591
300	29.95	116.502	113.78599	0.008583544
301	30	114.935	113.77747	0.00870057
302	30.05	115.676	113.77029	0.008644836
303	30.1	111.031	113.76451	0.009006494
304	30.15	116.658	113.76021	0.008572065
305	30.2	122.006	113.75746	0.008196318
306	30.25	113.887	113.75636	0.008780633
307	30.3	122.66	113.75699	0.008152617
308	30.35	126.687	113.75946	0.00789347
309	30.4	122.174	113.76389	0.008185048
310	30.45	120.892	113.7704	0.008271846
311	30.5	118.47	113.77911	0.008440956
312	30.55	116.932	113.79019	0.008551979
313	30.6	118.502	113.80379	0.008438676
314	30.65	114.818	113.82008	0.008709436
315	30.7	110.59	113.83928	0.009042409
316	30.75	114.539	113.86159	0.008730651
317	30.8	112.996	113.88726	0.008849871
318	30.85	116.947	113.91655	0.008550882
319	30.9	117.535	113.94975	0.008508104
320	30.95	120.61	113.9872	0.008291186
321	31	117.476	114.02927	0.008512377
322	31.05	113.844	114.07635	0.00878395
323	31.1	109.486	114.12891	0.009133588
324	31.15	113.551	114.18746	0.008806616
325	31.2	123.23	114.25258	0.008114907
326	31.25	116.972	114.32493	0.008549054
327	31.3	111.114	114.40525	0.008999766
328	31.35	115.277	114.49437	0.008674757
329	31.4	112.311	114.59326	0.008903847
330	31.45	116.575	114.70302	0.008578169
331	31.5	119.094	114.82491	0.008396729
332	31.55	113.79	114.96039	0.008788118
333	31.6	111.265	115.11114	0.008987552
334	31.65	115.102	115.27913	0.008687946
335	31.7	115.028	115.46667	0.008693535
336	31.75	112.706	115.67646	0.008872642
337	31.8	114.48	115.9117	0.00873515
338	31.85	121.239	116.1762	0.008248171
339	31.9	117.558	116.47455	0.008506439
340	31.95	110.742	116.81225	0.009029998
341	32	116.846	117.19603	0.008558273
342	32.05	130.299	117.63415	0.007674656
343	32.1	124.289	118.13683	0.008045764
344	32.15	122.647	118.71701	0.008153481
345	32.2	126.712	119.39138	0.007891912
346	32.25	129.85	120.1826	0.007701194
347	32.3	128.174	121.12365	0.007801894
348	32.35	125.167	122.26724	0.007989326
349	32.4	124.929	123.7041	0.008004547
350	32.45	133.94	125.59485	0.00746603
351	32.5	139.093	128.21714	0.007189434
352	32.55	133.645	132.0227	0.00748251
353	32.6	132.275	137.68996	0.007560008
354	32.65	143.361	146.15376	0.006975398
355	32.7	158.495	158.59826	0.006309347
356	32.75	165.461	176.41486	0.00604372
357	32.8	182.015	201.17344	0.005494053
358	32.85	204.048	234.67859	0.004900808
359	32.9	230.635	278.98502	0.004335855
360	32.95	280.84	335.95866	0.003560746
361	33	361.615	406.00682	0.002765372
362	33.05	434.745	486.06968	0.002300199
363	33.1	520.06	567.70006	0.001922855
364	33.15	597.156	636.53457	0.001674604
365	33.2	648.984	674.48715	0.00154087
366	33.25	656.349	666.807	0.00152358
367	33.3	603.706	614.55088	0.001656435
368	33.35	534.818	538.85553	0.001869795
369	33.4	450.502	465.70133	0.002219746
370	33.45	401.603	412.00242	0.002490021
371	33.5	380.552	382.3069	0.002627762
372	33.55	387.739	371.14994	0.002579054
373	33.6	382.323	366.88783	0.002615589
374	33.65	375.263	356.49703	0.002664798
375	33.7	334.412	331.50707	0.002990323
376	33.75	288.25	293.13311	0.003469211
377	33.8	238.89	249.96699	0.004186027
378	33.85	203.085	210.43503	0.004924047
379	33.9	179.592	179.13247	0.005568177
380	33.95	153.634	157.04443	0.006508976
381	34	144.774	142.83419	0.006907318
382	34.05	138.959	134.24047	0.007196367
383	34.1	126.851	129.12585	0.007883265
384	34.15	128.602	125.95525	0.007775929
385	34.2	121.37	123.81593	0.008239268
386	34.25	114.264	122.23448	0.008751663
387	34.3	114.385	120.98392	0.008742405
388	34.35	118.662	119.95502	0.008427298
389	34.4	121.61	119.08973	0.008223008
390	34.45	117.854	118.35225	0.008485075
391	34.5	108.936	117.7176	0.009179702
392	34.55	113.403	117.1671	0.008818109
393	34.6	116.05	116.68632	0.008616975
394	34.65	114.284	116.26385	0.008750131
395	34.7	116.485	115.89063	0.008584796
396	34.75	117.406	115.55932	0.008517452
397	34.8	113.212	115.26396	0.008832986
398	34.85	112.366	114.99965	0.008899489
399	34.9	111.295	114.76233	0.00898513
400	34.95	113.373	114.54862	0.008820442
401	35	114.851	114.35568	0.008706933
402	35.05	120.15	114.18113	0.00832293
403	35.1	113.054	114.02294	0.008845331
404	35.15	108.862	113.87939	0.009185942
405	35.2	112.136	113.74899	0.008917743
406	35.25	115.496	113.63047	0.008658309
407	35.3	118.41	113.52275	0.008445233
408	35.35	113.626	113.42487	0.008800803
409	35.4	115.828	113.33601	0.008633491
410	35.45	114.431	113.25547	0.008738891
411	35.5	118.283	113.18263	0.0084543
412	35.55	115.774	113.11695	0.008637518
413	35.6	111.88	113.05797	0.008938148
414	35.65	115.764	113.00527	0.008638264
415	35.7	112.146	112.95852	0.008916948
416	35.75	107.386	112.91741	0.009312201
417	35.8	109.861	112.88167	0.009102411
418	35.85	115.18	112.8511	0.008682063
419	35.9	121.834	112.82551	0.008207889
420	35.95	118.646	112.80474	0.008428434
421	36	116.482	112.78868	0.008585017
422	36.05	116.32	112.77722	0.008596974
423	36.1	114.761	112.77031	0.008713762
424	36.15	117.79	112.76788	0.008489685
425	36.2	114.679	112.76994	0.008719992
426	36.25	115.855	112.77647	0.008631479
427	36.3	112.111	112.7875	0.008919731
428	36.35	113.198	112.80307	0.008834078
429	36.4	116.02	112.82326	0.008619204
430	36.45	117.043	112.84816	0.008543868
431	36.5	117.284	112.87789	0.008526312
432	36.55	114.638	112.91257	0.008723111
433	36.6	116.43	112.95238	0.008588852
434	36.65	114.742	112.9975	0.008715205
435	36.7	117.356	113.04816	0.008521081
436	36.75	117.788	113.10459	0.008489829
437	36.8	118.891	113.1671	0.008411066
438	36.85	115.81	113.23598	0.008634833
439	36.9	114.996	113.3116	0.008695955
440	36.95	119.729	113.39435	0.008352195
441	37	114.778	113.48468	0.008712471
442	37.05	112.742	113.58309	0.008869809
443	37.1	119.89	113.69012	0.008340979
444	37.15	119.453	113.80641	0.008371493
445	37.2	115.971	113.93265	0.008622845
446	37.25	118.745	114.0696	0.008421407
447	37.3	111.091	114.21815	0.009001629
448	37.35	109.053	114.37927	0.009169853
449	37.4	116.021	114.55404	0.008619129
450	37.45	111.83	114.74372	0.008942144
451	37.5	113.342	114.9497	0.008822855
452	37.55	121.435	115.17355	0.008234858
453	37.6	115.663	115.41708	0.008645807
454	37.65	114.698	115.68232	0.008718548
455	37.7	112.858	115.97162	0.008860692
456	37.75	120.434	116.28765	0.008303303
457	37.8	117.729	116.63351	0.008494084
458	37.85	111.031	117.01275	0.009006494
459	37.9	119.664	117.42952	0.008356732
460	37.95	119.548	117.88866	0.008364841
461	38	122.514	118.39582	0.008162332
462	38.05	118.278	118.95765	0.008454658
463	38.1	122.488	119.58199	0.008164065
464	38.15	132.258	120.27873	0.007560979
465	38.2	130.569	121.05958	0.007658786
466	38.25	126.928	121.9388	0.007878482
467	38.3	131.803	122.93455	0.007587081
468	38.35	127.056	124.07861	0.007870545
469	38.4	127.761	125.36342	0.007827115
470	38.45	131.286	126.83837	0.007616958
471	38.5	133.832	128.54532	0.007472055
472	38.55	137.576	130.5371	0.00726871
473	38.6	135.981	132.88517	0.007353969
474	38.65	135.328	135.69289	0.007389454
475	38.7	129.98	139.12419	0.007693491
476	38.75	134.636	143.46325	0.007427434
477	38.8	136.655	149.22571	0.007317698
478	38.85	155.9	157.35224	0.006414368
479	38.9	173.305	169.51319	0.005770174
480	38.95	184.359	188.33451	0.0054242
481	39	211.837	217.81239	0.004720611
482	39.05	247.324	263.51858	0.004043279
483	39.1	298.673	332.53572	0.003348143
484	39.15	395.514	432.74944	0.002528356
485	39.2	520.655	571.12209	0.001920658
486	39.25	687.964	750.31939	0.001453564
487	39.3	889.871	963.68814	0.001123758
488	39.35	1109.232	1189.42479	0.000901525
489	39.4	1335.137	1387.87194	0.000748987
490	39.45	1484.886	1505.6568	0.000673452
491	39.5	1490.53	1492.88126	0.000670902
492	39.55	1325.981	1338.77831	0.000754159
493	39.6	1077.718	1093.06634	0.000927887
494	39.65	790.931	829.43664	0.001264333
495	39.7	579.427	600.7267	0.001725843
496	39.75	441.499	429.54003	0.002265011
497	39.8	346.892	315.89915	0.002882742
498	39.85	273.799	247.56579	0.003652314
499	39.9	229.595	209.35653	0.004355496
500	39.95	200.346	188.74232	0.004991365
501	40	177.672	177.63267	0.005628349
502	40.05	170.205	171.73416	0.005875268
503	40.1	165.872	169.2378	0.006028745
504	40.15	168.485	169.80663	0.005935246
505	40.2	173.53	174.07585	0.005762692
506	40.25	182.942	183.51904	0.005466213
507	40.3	197.345	200.46921	0.005067268
508	40.35	221.703	228.08648	0.004510539
509	40.4	253.961	270.02706	0.003937612
510	40.45	298.568	329.5733	0.003349321
511	40.5	376.237	408.05018	0.002657899
512	40.55	463.063	502.47759	0.002159533
513	40.6	569.004	603.07174	0.001757457
514	40.65	680.137	692.08828	0.001470292
515	40.7	763.998	745.76336	0.001308904
516	40.75	751.147	742.22636	0.001331297
517	40.8	690.254	677.70933	0.001448742
518	40.85	583.313	575.69777	0.001714345
519	40.9	467.638	470.26949	0.002138406
520	40.95	389.13	386.81008	0.002569835
521	41	346.837	338.56276	0.002883199
522	41.05	350.094	330.28097	0.002856376
523	41.1	378.921	362.56161	0.002639073
524	41.15	417.951	434.80718	0.002392625
525	41.2	520.642	545.43645	0.001920706
526	41.25	670.029	688.98479	0.001492473
527	41.3	822	851.43213	0.001216545
528	41.35	1009.712	1006.44935	0.000990381
529	41.4	1164.718	1115.9739	0.000858577
530	41.45	1194.372	1139.00704	0.00083726
531	41.5	1096.183	1054.82403	0.000912256
532	41.55	888.503	887.71991	0.001125489
533	41.6	671.982	691.87204	0.001488135
534	41.65	479.219	512.96306	0.002086729
535	41.7	358.493	373.80855	0.002789455
536	41.75	266.109	278.28543	0.003757859
537	41.8	224.527	219.00861	0.004453807
538	41.85	181.633	184.71084	0.005505607
539	41.9	154.614	165.30465	0.00646772
540	41.95	143.299	153.87902	0.006978416
541	42	139.173	146.50827	0.007185302
542	42.05	126.667	141.24461	0.007894716
543	42.1	122.636	137.19076	0.008154212
544	42.15	125.863	133.92757	0.007945147
545	42.2	115.524	131.23592	0.00865621
546	42.25	113.248	128.98186	0.008830178
547	42.3	118.182	127.07303	0.008461525
548	42.35	111.356	125.44139	0.008980208
549	42.4	118.17	124.03521	0.008462385
550	42.45	116.059	122.81443	0.008616307
551	42.5	116.72	121.74763	0.008567512
552	42.55	112.767	120.80987	0.008867843
553	42.6	118.702	119.98114	0.008424458
554	42.65	116.327	119.24525	0.008596457
555	42.7	122.211	118.58898	0.008182569
556	42.75	118.673	118.00145	0.008426517
557	42.8	121.817	117.47363	0.008209035
558	42.85	117.35	116.99798	0.008521517
559	42.9	117.786	116.56817	0.008489973
560	42.95	118.874	116.17886	0.008412268
561	43	115.744	115.82548	0.008639757
562	43.05	116.432	115.50415	0.008588704
563	43.1	115.56	115.21155	0.008653513
564	43.15	110.14	114.94479	0.009079354
565	43.2	122.885	114.70139	0.00813769
566	43.25	116.101	114.4792	0.00861319
567	43.3	112.705	114.27634	0.008872721
568	43.35	112.369	114.09116	0.008899252
569	43.4	112.541	113.92223	0.008885651
570	43.45	113.506	113.76828	0.008810107
571	43.5	113.3	113.62822	0.008826125
572	43.55	114.669	113.50106	0.008720753
573	43.6	120.369	113.38594	0.008307787
574	43.65	120.99	113.28212	0.008265146
575	43.7	122.635	113.18892	0.008154279
576	43.75	122.172	113.10576	0.008185182
577	43.8	122.72	113.03212	0.008148631
578	43.85	127.181	112.96756	0.00786281
579	43.9	127.181	112.91169	0.00786281
580	43.95	118.512	112.86415	0.008437964
581	44	118.22	112.82467	0.008458806
582	44.05	109.81	112.79299	0.009106639
583	44.1	115.134	112.76891	0.008685532
584	44.15	117.957	112.75225	0.008477666
585	44.2	117.646	112.74289	0.008500077
586	44.25	108.477	112.74073	0.009218544
587	44.3	115.129	112.74571	0.008685909
588	44.35	115.931	112.75823	0.008625821
589	44.4	116.916	112.77886	0.008553149
590	44.45	116.069	112.80861	0.008615565
591	44.5	109.455	112.85457	0.009136175
592	44.55	115.432	112.89796	0.008663109
593	44.6	117.639	112.94613	0.008500582
594	44.65	121.86	113.00182	0.008206138
595	44.7	116.886	113.06518	0.008555345
596	44.75	120.864	113.13644	0.008273762
597	44.8	122.689	113.21582	0.00815069
598	44.85	121.539	113.30362	0.008227812
599	44.9	121.559	113.40014	0.008226458
600	44.95	118.852	113.50574	0.008413826
601	45	118.799	113.62082	0.008417579
602	45.05	122.116	113.74582	0.008188935
603	45.1	115.934	113.88125	0.008625597
604	45.15	120.546	114.02767	0.008295588
605	45.2	122.435	114.18654	0.008167599
606	45.25	117.992	114.35943	0.008475151
607	45.3	117.625	114.54894	0.008501594
608	45.35	119.498	114.77006	0.008368341
609	45.4	112.114	114.98207	0.008919493
610	45.45	117.318	115.21009	0.008523841
611	45.5	117.652	115.45641	0.008499643
612	45.55	116.325	115.7234	0.008596604
613	45.6	114.095	116.01646	0.008764626
614	45.65	122.462	116.34098	0.008165798
615	45.7	121.212	116.66718	0.008250008
616	45.75	122.392	117.01799	0.008170469
617	45.8	126.864	117.39552	0.007882457
618	45.85	128.624	117.80215	0.007774599
619	45.9	117.013	118.24052	0.008546059
620	45.95	119.05	118.71361	0.008399832
621	46	123.475	119.22479	0.008098805
622	46.05	124.058	119.77783	0.008060746
623	46.1	117.897	120.37704	0.00848198
624	46.15	123.928	121.02729	0.008069201
625	46.2	119.107	121.73413	0.008395812
626	46.25	113.913	122.50391	0.008778629
627	46.3	126.331	123.3439	0.007915713
628	46.35	122.269	124.26249	0.008178688
629	46.4	124.522	125.26936	0.008030709
630	46.45	122.441	126.37577	0.008167199
631	46.5	125.997	127.59481	0.007936697
632	46.55	135.421	128.94185	0.007384379
633	46.6	141.066	130.43497	0.00708888
634	46.65	138.262	132.09559	0.007232645
635	46.7	152.003	133.94919	0.006578818
636	46.75	164.482	136.02631	0.006079693
637	46.8	161.049	138.36379	0.00620929
638	46.85	166.248	141.00639	0.00601511
639	46.9	167.322	144.00888	0.0059765
640	46.95	177.917	147.43889	0.005620598
641	47	182.709	151.38067	0.005473184
642	47.05	182.841	155.94022	0.005469233
643	47.1	184.558	161.25244	0.005418351
644	47.15	181.249	167.49155	0.005517272
645	47.2	188.314	174.88754	0.00531028
646	47.25	180.418	183.75605	0.005542684
647	47.3	189.677	194.56089	0.00527212
648	47.35	196.806	208.05448	0.005081146
649	47.4	213.108	225.58935	0.004692456
650	47.45	237.942	249.75658	0.004202705
651	47.5	295.089	285.55216	0.003388808
652	47.55	369.113	342.22188	0.002709197
653	47.6	482.528	435.66783	0.002072419
654	47.65	664.682	590.63942	0.001504479
655	47.7	927.183	840.68621	0.001078536
656	47.75	1300.917	1222.25623	0.000768689
657	47.8	1880.2	1759.3922	0.000531858
658	47.85	2584.225	2440.51559	0.000386963
659	47.9	3339.546	3196.16565	0.000299442
660	47.95	3971.775	3889.112	0.000251777
661	48	4323.49	4328.53923	0.000231295
662	48.05	4184.577	4332.7396	0.000238973
663	48.1	3593.966	3861.98492	0.000278244
664	48.15	2748.479	3090.36569	0.000363838
665	48.2	1985.24	2265.63145	0.000503717
666	48.25	1384.242	1557.39027	0.000722417
667	48.3	979.356	1033.53921	0.001021079
668	48.35	676.337	689.49835	0.001478553
669	48.4	485.351	483.64493	0.002060365
670	48.45	363.268	367.20573	0.002752789
671	48.5	284.209	301.43146	0.003518537
672	48.55	239.423	261.92143	0.004176708
673	48.6	202.725	235.6847	0.004932791
674	48.65	179.394	216.54492	0.005574322
675	48.7	162.969	201.68163	0.006136136
676	48.75	151.492	189.7325	0.006601009
677	48.8	137.75	179.93018	0.007259528
678	48.85	130.434	171.78086	0.007666713
679	48.9	123.233	164.93393	0.00811471
680	48.95	128.242	159.1286	0.007797757
681	49	120.773	154.16618	0.008279996
682	49.05	119.025	149.89301	0.008401596
683	49.1	121.078	146.18908	0.008259139
684	49.15	124.827	142.96044	0.008011087
685	49.2	126.875	140.13305	0.007881773
686	49.25	122.122	137.65312	0.008188533
687	49.3	128.421	135.44195	0.007786888
688	49.35	123.881	133.47568	0.008072263
689	49.4	120.338	131.72041	0.008309927
690	49.45	115.126	130.14792	0.008686135
691	49.5	116.778	128.73464	0.008563257
692	49.55	123.097	127.46068	0.008123675
693	49.6	120.558	126.30923	0.008294763
694	49.65	119.043	125.26599	0.008400326
695	49.7	123.778	124.31874	0.00807898
696	49.75	121.738	123.45698	0.008214362
697	49.8	119.817	122.67166	0.008346061
698	49.85	115.447	121.95498	0.008661983
699	49.9	113.371	121.30014	0.008820598
700	49.95	116.241	120.70125	0.008602817
701	50	116.136	120.15314	0.008610594
702	50.05	117.029	119.65131	0.008544891
703	50.1	114.185	119.19181	0.008757718
704	50.15	110.964	118.77117	0.009011932
705	50.2	113.202	118.38635	0.008833766
706	50.25	110.551	118.03467	0.009045599
707	50.3	109.969	117.71377	0.009093472
708	50.35	113.434	117.42161	0.008815699
709	50.4	114.535	117.15636	0.008730956
710	50.45	116.865	116.91645	0.008556882
711	50.5	113.932	116.70051	0.008777165
712	50.55	108.241	116.50737	0.009238643
713	50.6	108.502	116.336	0.00921642
714	50.65	114.089	116.18558	0.008765087
715	50.7	118.744	116.0554	0.008421478
716	50.75	118.502	115.94491	0.008438676
717	50.8	122.437	115.85371	0.008167466
718	50.85	117.394	115.78152	0.008518323
719	50.9	119.165	115.72821	0.008391726
720	50.95	119.693	115.69375	0.008354707
721	51	119.832	115.67831	0.008345016
722	51.05	122.004	115.68214	0.008196453
723	51.1	113.716	115.70569	0.008793837
724	51.15	116.297	115.74957	0.008598674
725	51.2	114.919	115.81454	0.008701781
726	51.25	116.22	115.9016	0.008604371
727	51.3	117.084	116.01195	0.008540877
728	51.35	112.665	116.14704	0.008875871
729	51.4	119.785	116.30864	0.008348291
730	51.45	119.493	116.49881	0.008368691
731	51.5	116.223	116.72006	0.008604149
732	51.55	121.993	116.97532	0.008197192
733	51.6	117.525	117.26811	0.008508828
734	51.65	120.257	117.60259	0.008315524
735	51.7	124.252	117.98375	0.00804816
736	51.75	120.624	118.41755	0.008290224
737	51.8	123.2	118.91121	0.008116883
738	51.85	121.021	119.47345	0.008263029
739	51.9	123.626	120.11492	0.008088913
740	51.95	123.623	120.84874	0.00808911
741	52	118.965	121.69116	0.008405834
742	52.05	127.136	122.6626	0.007865593
743	52.1	127.571	123.78889	0.007838772
744	52.15	126.459	125.1033	0.007907701
745	52.2	121.662	126.64948	0.008219493
746	52.25	125.012	128.48688	0.007999232
747	52.3	128.772	130.7019	0.007765663
748	52.35	130.212	133.43374	0.007679784
749	52.4	135.231	136.93406	0.007394754
750	52.45	137.614	141.69581	0.007266703
751	52.5	148.313	148.69946	0.006742497
752	52.55	165.927	159.81112	0.006026747
753	52.6	186.767	178.28117	0.005354265
754	52.65	221.553	209.08912	0.004513593
755	52.7	267.658	258.57527	0.003736111
756	52.75	346.935	332.58306	0.002882384
757	52.8	451.289	432.69817	0.002215875
758	52.85	569.385	551.61982	0.001756281
759	52.9	692.256	670.19535	0.001444552
760	52.95	794.167	758.40217	0.001259181
761	53	801.135	783.51322	0.001248229
762	53.05	733.737	730.89715	0.001362886
763	53.1	591.18	622.102	0.001691532
764	53.15	452.751	497.48721	0.00220872
765	53.2	359.353	387.78502	0.002782779
766	53.25	275.839	307.0906	0.003625303
767	53.3	239.384	257.28015	0.004177389
768	53.35	232.521	234.18207	0.004300687
769	53.4	233.915	233.37201	0.004275057
770	53.45	263.778	254.30681	0.003791067
771	53.5	309.605	302.14347	0.003229922
772	53.55	409.935	387.01552	0.002439411
773	53.6	556.911	520.17439	0.001795619
774	53.65	731.573	706.42205	0.001366918
775	53.7	977.845	934.33588	0.001022657
776	53.75	1219.091	1169.08157	0.000820283
777	53.8	1411.961	1352.93383	0.000708235
778	53.85	1442.392	1419.50675	0.000693293
779	53.9	1330.871	1332.959	0.000751388
780	53.95	1092.317	1128.66172	0.000915485
781	54	855.5	887.03571	0.001168907
782	54.05	653.967	675.2569	0.001529129
783	54.1	549.745	528.91959	0.001819025
784	54.15	512.295	458.69664	0.001952
785	54.2	533.985	459.41071	0.001872712
786	54.25	584.601	516.19479	0.001710568
787	54.3	687.484	606.58922	0.001454579
788	54.35	766.306	700.55512	0.001304962
789	54.4	816.888	762.184	0.001224158
790	54.45	788.954	759.199	0.001267501
791	54.5	687.808	684.56616	0.001453894
792	54.55	533.247	566.23605	0.001875304
793	54.6	411.574	442.0969	0.002429697
794	54.65	307.492	336.8184	0.003252117
795	54.7	237.992	259.58176	0.004201822
796	54.75	197.128	208.97473	0.005072846
797	54.8	165.094	178.44476	0.006057155
798	54.85	150.66	160.7211	0.006637462
799	54.9	141.835	150.20665	0.007050446
800	54.95	127.697	143.46119	0.007831038
801	55	123.994	138.69167	0.008064906
802	55.05	120.687	135.0747	0.008285897
803	55.1	123.033	132.16581	0.008127901
804	55.15	119.965	129.71793	0.008335765
805	55.2	112.278	127.65828	0.008906464
806	55.25	116.152	125.90532	0.008609408
807	55.3	115.656	124.3993	0.00864633
808	55.35	114.069	123.09492	0.008766624
809	55.4	118.888	121.95705	0.008411278
810	55.45	113.843	120.95802	0.008784027
811	55.5	115.14	120.07563	0.008685079
812	55.55	113.239	119.2917	0.00883088
813	55.6	118.098	118.58984	0.008467544
814	55.65	120.302	117.95585	0.008312414
815	55.7	110.201	117.39915	0.009074328
816	55.75	113.375	116.89845	0.008820287
817	55.8	113.835	116.44699	0.008784644
818	55.85	112.765	116.03905	0.008868
819	55.9	112.528	115.66976	0.008886677
820	55.95	110.324	115.3355	0.009064211
821	56	114.516	115.04009	0.008732404
822	56.05	115.039	114.80919	0.008692704
823	56.1	113.982	114.58118	0.008773315
824	56.15	110.822	114.35092	0.009023479
825	56.2	113.694	114.13971	0.008795539
826	56.25	110.912	113.94313	0.009016157
827	56.3	110.626	113.75129	0.009039466
828	56.35	118.643	113.60038	0.008428647
829	56.4	113.57	113.46505	0.008805142
830	56.45	113.211	113.34432	0.008833064
831	56.5	112.411	113.23736	0.008895927
832	56.55	110.142	113.14346	0.009079189
833	56.6	115.642	113.06199	0.008647377
834	56.65	112.558	112.99245	0.008884309
835	56.7	113.124	112.93442	0.008839857
836	56.75	115.675	112.88754	0.00864491
837	56.8	116.533	112.85156	0.00858126
838	56.85	116.019	112.8263	0.008619278
839	56.9	112.892	112.81163	0.008858024
840	56.95	112.729	112.80753	0.008870832
841	57	118.07	112.81401	0.008469552
842	57.05	117.146	112.83121	0.008536356
843	57.1	111.706	112.85929	0.008952071
844	57.15	109.362	112.89852	0.009143944
845	57.2	111.871	112.94926	0.008938867
846	57.25	116.454	113.01196	0.008587082
847	57.3	108.118	113.08716	0.009249154
848	57.35	109.051	113.17553	0.009170021
849	57.4	113.153	113.27785	0.008837592
850	57.45	109.239	113.39507	0.00915424
851	57.5	111.41	113.52828	0.008975855
852	57.55	113.854	113.67879	0.008783178
853	57.6	111.165	113.8481	0.008995637
854	57.65	110.307	114.038	0.009065608
855	57.7	115.313	114.25059	0.008672049
856	57.75	113.095	114.48832	0.008842124
857	57.8	117.397	114.75412	0.008518105
858	57.85	115.698	115.05143	0.008643192
859	57.9	110.892	115.38438	0.009017783
860	57.95	117.804	115.75792	0.008488676
861	58	114.501	116.17803	0.008733548
862	58.05	116.76	116.65197	0.008564577
863	58.1	118.327	117.18867	0.008451157
864	58.15	123.544	117.79915	0.008094282
865	58.2	119.404	118.49723	0.008374929
866	58.25	117.741	119.30036	0.008493218
867	58.3	128.15	120.23091	0.007803355
868	58.35	120.925	121.31808	0.008269589
869	58.4	116.359	122.60101	0.008594092
870	58.45	118.853	124.13686	0.008413755
871	58.5	120.787	126.02193	0.008279037
872	58.55	126.203	128.39632	0.007923742
873	58.6	133.684	131.54449	0.007480327
874	58.65	129.005	136.09695	0.007751638
875	58.7	143.364	143.28081	0.006975252
876	58.75	158.01	155.31791	0.006328713
877	58.8	176.631	175.68835	0.00566152
878	58.85	208.968	208.81961	0.004785422
879	58.9	267.685	258.64039	0.003735734
880	58.95	323.003	325.77484	0.003095946
881	59	407.96	404.11523	0.002451221
882	59.05	505.393	478.62693	0.001978658
883	59.1	538.853	527.00128	0.001855794
884	59.15	528.914	528.55113	0.001890667
885	59.2	477.54	481.40271	0.002094065
886	59.25	399.295	407.01705	0.002504414
887	59.3	324.445	331.00009	0.003082187
888	59.35	264.178	269.06268	0.003785327
889	59.4	229.642	226.8325	0.004354604
890	59.45	205.278	203.6312	0.004871443
891	59.5	196.794	196.53122	0.005081456
892	59.55	213.496	203.82165	0.004683929
893	59.6	231.856	227.05636	0.004313022
894	59.65	275.821	271.30216	0.00362554
895	59.7	347.704	343.4406	0.002876009
896	59.75	461.196	448.06794	0.002168276
897	59.8	596.966	582.5033	0.001675137
898	59.85	771.857	732.22559	0.001295577
899	59.9	917.286	870.81277	0.001090173
900	59.95	1014.465	968.0036	0.000985741
901	60	1069.047	1011.47511	0.000935413
902	60.05	1060.833	1023.38008	0.000942655
903	60.1	1052.278	1033.86439	0.000950319
904	60.15	1062.555	1045.26643	0.000941128
905	60.2	1054.744	1029.20118	0.000948097
906	60.25	1014.178	951.37702	0.00098602
907	60.3	858.574	810.16613	0.001164722
908	60.35	651.604	641.88002	0.001534674
909	60.4	469.091	485.20909	0.002131783
910	60.45	346.348	361.073	0.002887269
911	60.5	267.209	274.1571	0.003742389
912	60.55	217.273	219.05628	0.004602505
913	60.6	179.059	186.40143	0.005584751
914	60.65	158.557	167.40592	0.00630688
915	60.7	154.421	155.8854	0.006475803
916	60.75	142.872	148.26235	0.006999272
917	60.8	131.636	142.73357	0.007596706
918	60.85	120.035	138.46287	0.008330903
919	60.9	124.456	135.04636	0.008034968
920	60.95	123.432	132.20566	0.008101627
921	61	123.18	129.83519	0.008118201
922	61.05	118.655	127.83643	0.008427795
923	61.1	120.093	126.1364	0.00832688
924	61.15	123.84	124.67949	0.008074935
925	61.2	119.832	123.42266	0.008345016
926	61.25	122.116	122.33212	0.008188935
927	61.3	116.379	121.38107	0.008592616
928	61.35	112.097	120.54803	0.008920845
929	61.4	115.666	119.81567	0.008645583
930	61.45	117.982	119.16984	0.008475869
931	61.5	114.211	118.59895	0.008755724
932	61.55	122.485	118.09342	0.008164265
933	61.6	124.968	117.64531	0.008002049
934	61.65	113.8	117.248	0.008787346
935	61.7	114.285	116.89594	0.008750055
936	61.75	122.052	116.58452	0.008193229
937	61.8	118.073	116.30984	0.008469337
938	61.85	118.167	116.06865	0.0084626
939	61.9	120.765	115.85825	0.008280545
940	61.95	115.955	115.67642	0.008624035
941	62	118.364	115.52135	0.008448515
942	62.05	124.847	115.39158	0.008009804
943	62.1	117.658	115.28603	0.00849921
944	62.15	119.189	115.20392	0.008390036
945	62.2	125.345	115.14479	0.007977981
946	62.25	121.308	115.10846	0.008243479
947	62.3	121.666	115.09508	0.008219223
948	62.35	122.276	115.10513	0.00817822
949	62.4	118.159	115.13942	0.008463173
950	62.45	118.41	115.19918	0.008445233
951	62.5	112.207	115.28591	0.0089121
952	62.55	118.91	115.39976	0.008409722
953	62.6	118.066	115.54183	0.008469839
954	62.65	114.113	115.71409	0.008763243
955	62.7	117.664	115.91786	0.008498776
956	62.75	120.989	116.15047	0.008265214
957	62.8	120.634	116.39006	0.008289537
958	62.85	128.198	116.72172	0.007800434
959	62.9	123.243	117.17657	0.008114051
960	62.95	120.495	117.71683	0.0082991
961	63	122.555	118.36016	0.008159602
962	63.05	124.991	119.12949	0.008000576
963	63.1	126.339	120.05489	0.007915212
964	63.15	125.898	121.17662	0.007942938
965	63.2	129.935	122.55052	0.007696156
966	63.25	126.542	124.25952	0.007902515
967	63.3	125.898	126.44192	0.007942938
968	63.35	130.323	129.36173	0.007673243
969	63.4	139.449	133.5698	0.00717108
970	63.45	147.778	140.21849	0.006766907
971	63.5	166.619	151.54457	0.006001716
972	63.55	180.654	171.34855	0.005535443
973	63.6	213.092	204.97074	0.004692809
974	63.65	271.735	258.01769	0.003680056
975	63.7	338.633	333.33484	0.002953049
976	63.75	422.393	426.61766	0.002367463
977	63.8	513.134	522.33334	0.001948809
978	63.85	570.39	593.2003	0.001753186
979	63.9	579.425	609.20729	0.001725849
980	63.95	544.549	560.45086	0.001836382
981	64	459.415	469.80881	0.002176681
982	64.05	358.735	370.78164	0.002787573
983	64.1	286.963	285.55749	0.00348477
984	64.15	228.723	222.75237	0.004372101
985	64.2	183.927	181.73162	0.00543694
986	64.25	164.631	157.28796	0.00607419
987	64.3	147.95	143.44268	0.00675904
988	64.35	143.581	135.54107	0.00696471
989	64.4	136.708	130.71156	0.007314861
990	64.45	133.343	127.45189	0.007499456
991	64.5	127.792	125.05361	0.007825216
992	64.55	129.684	123.18974	0.007711051
993	64.6	127.47	121.69661	0.007844983
994	64.65	126.992	120.47931	0.007874512
995	64.7	122.439	119.4846	0.008167332
996	64.75	119.779	118.66663	0.008348709
997	64.8	123.299	117.96412	0.008110366
998	64.85	112.545	117.37017	0.008885335
999	64.9	123.928	116.86504	0.008069201
1000	64.95	118.198	116.43332	0.00846038
1001	65	118.547	116.06285	0.008435473
1002	65.05	119.928	115.74392	0.008338336
1003	65.1	120.005	115.46871	0.008332986
1004	65.15	118.451	115.23088	0.008442309
1005	65.2	124.507	115.02524	0.008031677
1006	65.25	120.739	114.84752	0.008282328
1007	65.3	119.971	114.69417	0.008335348
1008	65.35	111.154	114.56255	0.008996527
1009	65.4	114.349	114.45866	0.008745157
1010	65.45	121.597	114.36259	0.008223887
1011	65.5	123.068	114.28161	0.008125589
1012	65.55	122.22	114.21422	0.008181967
1013	65.6	122.226	114.15916	0.008181565
1014	65.65	121.523	114.11533	0.008228895
1015	65.7	121.753	114.08179	0.00821335
1016	65.75	123.163	114.05776	0.008119322
1017	65.8	125.684	114.04255	0.007956462
1018	65.85	122.483	114.03558	0.008164398
1019	65.9	115.366	114.03636	0.008668065
1020	65.95	115.243	114.04445	0.008677317
1021	66	118.371	114.0595	0.008448015
1022	66.05	120.306	114.08121	0.008312137
1023	66.1	120.611	114.10933	0.008291118
1024	66.15	117.039	114.14367	0.00854416
1025	66.2	117.856	114.18407	0.008484931
1026	66.25	123.562	114.23039	0.008093103
1027	66.3	120.239	114.28257	0.008316769
1028	66.35	126.623	114.34055	0.007897459
1029	66.4	120.921	114.4043	0.008269862
1030	66.45	122.901	114.47385	0.00813663
1031	66.5	121.427	114.54922	0.008235401
1032	66.55	117.382	114.6305	0.008519194
1033	66.6	115.83	114.71778	0.008633342
1034	66.65	115.349	114.81119	0.008669343
1035	66.7	123.96	114.91087	0.008067118
1036	66.75	117.73	115.01703	0.008494012
1037	66.8	118.137	115.12987	0.008464749
1038	66.85	123.598	115.24964	0.008090746
1039	66.9	120.858	115.37663	0.008274173
1040	66.95	121.592	115.51117	0.008224225
1041	67	116.384	115.65359	0.008592246
1042	67.05	118.794	115.80432	0.008417934
1043	67.1	123.642	115.96379	0.008087867
1044	67.15	124.116	116.13249	0.008056979
1045	67.2	119.054	116.31099	0.00839955
1046	67.25	121.029	116.49989	0.008262483
1047	67.3	124.095	116.69986	0.008058342
1048	67.35	122.272	116.91165	0.008178487
1049	67.4	127.035	117.13609	0.007871846
1050	67.45	123	117.3741	0.008130081
1051	67.5	118.309	117.62632	0.008452442
1052	67.55	123.558	117.89344	0.008093365
1053	67.6	124.007	118.17627	0.008064061
1054	67.65	127.743	118.47511	0.007828218
1055	67.7	121.892	118.78497	0.008203984
1056	67.75	129.791	119.12134	0.007704694
1057	67.8	125.127	119.49076	0.00799188
1058	67.85	114.832	119.88615	0.008708374
1059	67.9	120.322	120.31002	0.008311032
1060	67.95	128.828	120.76522	0.007762288
1061	68	124.656	121.25498	0.008022077
1062	68.05	121.079	121.783	0.008259071
1063	68.1	122.727	122.35347	0.008148166
1064	68.15	120.781	122.97122	0.008279448
1065	68.2	123.483	123.6418	0.008098281
1066	68.25	126.174	124.37164	0.007925563
1067	68.3	124.339	125.16818	0.008042529
1068	68.35	127.513	126.04005	0.007842338
1069	68.4	128.846	126.99633	0.007761203
1070	68.45	132.601	128.04814	0.007541421
1071	68.5	129.923	129.20834	0.007696867
1072	68.55	142.513	130.4894	0.007016904
1073	68.6	139.657	131.8979	0.0071604
1074	68.65	134.403	133.51745	0.00744031
1075	68.7	140.195	135.34429	0.007132922
1076	68.75	137.638	137.46959	0.007265435
1077	68.8	139.338	139.82408	0.007176793
1078	68.85	136.904	142.53829	0.007304388
1079	68.9	146.114	145.64977	0.006843971
1080	68.95	140.405	149.2692	0.007122253
1081	69	146.506	153.51574	0.006825659
1082	69.05	144.698	158.54605	0.006910946
1083	69.1	150.771	164.56972	0.006632575
1084	69.15	150.054	171.87753	0.006664268
1085	69.2	161.94	180.9537	0.006175127
1086	69.25	171.563	192.57461	0.005828763
1087	69.3	182.331	208.32397	0.005484531
1088	69.35	197.672	231.56516	0.005058885
1089	69.4	246.795	269.22778	0.004051946
1090	69.45	313.961	334.16263	0.003185109
1091	69.5	432.195	446.59989	0.00231377
1092	69.55	608.437	631.72405	0.001643556
1093	69.6	884.442	910.28583	0.001130656
1094	69.65	1271.014	1281.98682	0.000786773
1095	69.7	1695.607	1705.36816	0.000589759
1096	69.75	2080.516	2082.03	0.00048065
1097	69.8	2285.545	2270.10354	0.000437532
1098	69.85	2259.044	2171.77662	0.000442665
1099	69.9	1906.49	1837.51565	0.000524524
1100	69.95	1453.201	1414.31252	0.000688136
1101	70	1079.844	1022.03741	0.00092606
1102	70.05	774.799	718.0323	0.001290657
1103	70.1	579.675	512.24365	0.001725105
1104	70.15	449.583	387.83376	0.002224283
1105	70.2	372.062	319.38763	0.002687724
1106	70.25	329.701	284.92652	0.003033051
1107	70.3	305.611	270.51852	0.003272134
1108	70.35	299.608	270.21102	0.003337695
1109	70.4	307.712	284.87217	0.003249792
1110	70.45	352.214	321.8066	0.002839183
1111	70.5	414.353	394.60747	0.002413401
1112	70.55	531.42	520.89202	0.001881751
1113	70.6	718.784	715.38199	0.001391239
1114	70.65	992.497	977.90639	0.00100756
1115	70.7	1306.568	1278.88621	0.000765364
1116	70.75	1602.148	1547.85931	0.000624162
1117	70.8	1796.667	1682.6547	0.000556586
1118	70.85	1774.219	1611.56921	0.000563628
1119	70.9	1515.495	1369.14724	0.00065985
1120	70.95	1169.718	1060.86529	0.000854907
1121	71	829.677	773.70249	0.001205288
1122	71.05	571.744	549.57345	0.001749035
1123	71.1	414.261	395.97895	0.002413937
1124	71.15	308.153	300.83527	0.003245141
1125	71.2	244.925	245.6022	0.004082883
1126	71.25	213.019	213.93409	0.004694417
1127	71.3	193.612	194.86097	0.005164969
1128	71.35	174.163	182.27463	0.005741748
1129	71.4	163.897	173.17839	0.006101393
1130	71.45	151.688	166.17881	0.006592479
1131	71.5	150.392	160.59915	0.00664929
1132	71.55	139.659	156.06531	0.007160298
1133	71.6	134.33	152.33878	0.007444353
1134	71.65	131.866	149.25231	0.007583456
1135	71.7	129.243	146.68286	0.007737363
1136	71.75	132.539	144.53776	0.007544949
1137	71.8	129.217	142.7463	0.00773892
1138	71.85	132.47	141.25412	0.007548879
1139	71.9	131.548	140.01921	0.007601788
1140	71.95	133.622	139.00913	0.007483798
1141	72	132.35	138.19901	0.007555723
1142	72.05	138.294	137.57015	0.007230972
1143	72.1	133.463	137.10893	0.007492713
1144	72.15	126.125	136.80625	0.007928642
1145	72.2	126.765	136.65703	0.007888613
1146	72.25	134.941	136.66006	0.007410646
1147	72.3	133.223	136.81805	0.007506211
1148	72.35	130.919	137.13792	0.007638311
1149	72.4	135.273	137.63133	0.007392458
1150	72.45	131.834	138.31556	0.007585297
1151	72.5	134.073	139.21488	0.007458623
1152	72.55	134.631	140.36251	0.00742771
1153	72.6	129.815	141.80366	0.00770327
1154	72.65	137.011	143.60041	0.007298684
1155	72.7	147.472	145.86971	0.006780948
1156	72.75	141.599	148.69083	0.007062197
1157	72.8	147.014	152.33007	0.006802073
1158	72.85	147.532	157.26245	0.00677819
1159	72.9	157.056	164.48871	0.006367156
1160	72.95	174.925	176.04173	0.005716736
1161	73	187	195.6141	0.005347594
1162	73.05	220.29	228.85406	0.004539471
1163	73.1	273.866	282.49553	0.003651421
1164	73.15	349.808	361.58552	0.002858711
1165	73.2	464.386	464.93812	0.002153381
1166	73.25	572.309	579.81693	0.001747308
1167	73.3	674.045	677.7724	0.00148358
1168	73.35	730.777	720.20734	0.001368407
1169	73.4	705.193	686.92992	0.001418052
1170	73.45	619.602	600.65261	0.001613939
1171	73.5	537.146	504.30697	0.001861691
1172	73.55	445.677	430.8004	0.002243777
1173	73.6	410.179	397.29025	0.00243796
1174	73.65	411.154	407.79184	0.002432179
1175	73.7	462.407	455.111	0.002162597
1176	73.75	524.933	521.54569	0.001905005
1177	73.8	581.133	579.21439	0.001720776
1178	73.85	611.778	597.44324	0.00163458
1179	73.9	591.104	565.20549	0.00169175
1180	73.95	531.59	503.08248	0.001881149
1181	74	465.818	442.17329	0.002146761
1182	74.05	420.918	404.97973	0.00237576
1183	74.1	417.011	403.27899	0.002398018
1184	74.15	468.501	440.53853	0.002134467
1185	74.2	552.965	514.29992	0.001808433
1186	74.25	660.195	617.90367	0.001514704
1187	74.3	797.047	742.70817	0.001254631
1188	74.35	931.863	886.42285	0.001073119
1189	74.4	1089.275	1059.42624	0.000918042
1190	74.45	1295.666	1265.05326	0.000771804
1191	74.5	1493.313	1470.76453	0.000669652
1192	74.55	1631.958	1599.94803	0.000612761
1193	74.6	1641.582	1569.30358	0.000609168
1194	74.65	1478.806	1373.28157	0.000676221
1195	74.7	1188.323	1094.19963	0.000841522
1196	74.75	883.946	818.64732	0.001131291
1197	74.8	630.57	594.34435	0.001585867
1198	74.85	465.18	435.20203	0.002149705
1199	74.9	364.995	334.43813	0.002739764
1200	74.95	298.56	276.66298	0.003349411
1201	75	254.452	246.73719	0.003930014
1202	75.05	238.607	233.95175	0.004190992
1203	75.1	230.227	232.04189	0.004343539
1204	75.15	230.133	237.3142	0.004345313
1205	75.2	243.775	246.63574	0.004102143
1206	75.25	248.258	256.2105	0.004028068
1207	75.3	256.005	262.48449	0.003906174
1208	75.35	262.952	266.23502	0.003802975
1209	75.4	277.773	275.14681	0.003600062
1210	75.45	294.628	301.23295	0.003394111
1211	75.5	352.954	357.8192	0.00283323
1212	75.55	442.351	456.5002	0.002260648
1213	75.6	596.106	601.46502	0.001677554
1214	75.65	789.347	781.58572	0.00126687
1215	75.7	1002.817	961.96672	0.000997191
1216	75.75	1179.661	1081.24033	0.000847701
1217	75.8	1210.479	1079.09699	0.000826119
1218	75.85	1118.121	954.78708	0.000894358
1219	75.9	882.737	768.83384	0.00113284
1220	75.95	649.037	582.75327	0.001540744
1221	76	463.258	430.31896	0.002158624
1222	76.05	341.061	321.54321	0.002932027
1223	76.1	264.131	251.82054	0.003786
1224	76.15	215.795	210.35003	0.004634028
1225	76.2	187.328	186.35796	0.00533823
1226	76.25	169.5	172.02474	0.005899705
1227	76.3	162.696	162.73112	0.006146433
1228	76.35	155.652	156.11314	0.006424588
1229	76.4	150.736	151.05105	0.006634115
1230	76.45	142.622	147.00819	0.007011541
1231	76.5	136.338	143.69868	0.007334712
1232	76.55	130.935	140.9466	0.007637377
1233	76.6	125.907	138.63098	0.00794237
1234	76.65	123.497	136.66337	0.008097363
1235	76.7	125.943	134.97713	0.0079401
1236	76.75	123.887	133.52105	0.008071872
1237	76.8	126.783	132.25529	0.007887493
1238	76.85	123.408	131.14846	0.008103202
1239	76.9	122.508	130.17556	0.008162732
1240	76.95	119.906	129.31648	0.008339866
1241	77	125.315	128.55493	0.007979891
1242	77.05	130.328	127.87756	0.007672948
1243	77.1	124.451	127.27337	0.008035291
1244	77.15	129.687	126.73327	0.007710873
1245	77.2	132.819	126.24963	0.007529043
1246	77.25	128.834	125.81608	0.007761926
1247	77.3	124.356	125.48473	0.008041429
1248	77.35	122.324	125.13645	0.008175011
1249	77.4	122.921	124.82452	0.008135306
1250	77.45	124.663	124.54566	0.008021626
1251	77.5	127.811	124.29712	0.007824053
1252	77.55	126.018	124.07655	0.007935374
1253	77.6	119.77	123.88198	0.008349336
1254	77.65	120.82	123.71177	0.008276775
1255	77.7	121.693	123.5817	0.0082174
1256	77.75	125.071	123.45647	0.007995459
1257	77.8	130.082	123.35227	0.007687459
1258	77.85	133.41	123.26845	0.00749569
1259	77.9	126.429	123.21	0.007909578
1260	77.95	129.617	123.16608	0.007715037
1261	78	138.534	123.14168	0.007218445
1262	78.05	124.052	123.13718	0.008061136
1263	78.1	126.734	123.15302	0.007890542
1264	78.15	119.031	123.18983	0.008401173
1265	78.2	125.658	123.24856	0.007958109
1266	78.25	129.009	123.33041	0.007751397
1267	78.3	128.589	123.43693	0.007776715
1268	78.35	126.571	123.57006	0.007900704
1269	78.4	124.994	123.73219	0.008000384
1270	78.45	131.666	123.9261	0.007594975
1271	78.5	125.707	124.15419	0.007955006
1272	78.55	126.13	124.41926	0.007928328
1273	78.6	129.639	124.72291	0.007713728
1274	78.65	120.945	125.08144	0.008268221
1275	78.7	127.801	125.50803	0.007824665
1276	78.75	125.284	126.00456	0.007981865
1277	78.8	132.266	126.58352	0.007560522
1278	78.85	127.639	127.26069	0.007834596
1279	78.9	123.962	128.05607	0.008066988
1280	78.95	128.316	128.99535	0.00779326
1281	79	128.194	130.11189	0.007800677
1282	79.05	129.961	131.44973	0.007694616
1283	79.1	130.585	133.0684	0.007657847
1284	79.15	137.343	135.05227	0.007281041
1285	79.2	134.022	137.53202	0.007461462
1286	79.25	144.867	140.73904	0.006902883
1287	79.3	144.36	145.13721	0.006927127
1288	79.35	158	151.70152	0.006329114
1289	79.4	165.553	162.39069	0.006040362
1290	79.45	185.195	180.70426	0.005399714
1291	79.5	228.722	211.88405	0.00437212
1292	79.55	269.082	262.00768	0.003716339
1293	79.6	346.976	335.38532	0.002882044
1294	79.65	423.275	430.47716	0.00236253
1295	79.7	527.536	535.08444	0.001895605
1296	79.75	603.526	621.98156	0.001656929
1297	79.8	627.275	653.98213	0.001594197
1298	79.85	588.463	613.24106	0.001699342
1299	79.9	519.345	522.52661	0.001925502
1300	79.95	423.787	419.16143	0.002359676
1301	80	340.628	328.29262	0.002935754
1302	80.05	289.127	260.49071	0.003458688
1303	80.1	241.09	216.65836	0.004147829
1304	80.15	219.019	192.95173	0.004565814
1305	80.2	217.015	184.82057	0.004607976
1306	80.25	212.741	189.21318	0.004700551
1307	80.3	227.308	204.61706	0.004399317
1308	80.35	244.403	229.56563	0.004091603
1309	80.4	266.937	260.56408	0.003746202
1310	80.45	300.786	290.05856	0.003324623
1311	80.5	306.936	306.10488	0.003258008
1312	80.55	305.079	299.09635	0.00327784
1313	80.6	273.179	272.0834	0.003660603
1314	80.65	245.05	237.02855	0.0040808
1315	80.7	212.299	203.88626	0.004710338
1316	80.75	175.854	177.52976	0.005686535
1317	80.8	159.71	159.0198	0.006261349
1318	80.85	149.585	147.19988	0.006685162
1319	80.9	144.523	140.09081	0.006919314
1320	80.95	144.209	135.85813	0.00693438
1321	81	137.489	133.22189	0.007273309
1322	81.05	129.964	131.4407	0.007694438
1323	81.1	127.438	130.13636	0.007846953
1324	81.15	126.936	129.12673	0.007877986
1325	81.2	131.817	128.32109	0.007586275
1326	81.25	133.144	127.66865	0.007510665
1327	81.3	121.374	127.13687	0.008238997
1328	81.35	124.331	126.7028	0.008043046
1329	81.4	122.534	126.38399	0.008161
1330	81.45	119.778	126.10254	0.008348779
1331	81.5	124.77	125.87501	0.008014747
1332	81.55	120.979	125.69762	0.008265897
1333	81.6	126.197	125.56435	0.007924119
1334	81.65	127.757	125.47051	0.00782736
1335	81.7	119.779	125.41247	0.008348709
1336	81.75	125.894	125.38744	0.00794319
1337	81.8	124.136	125.39333	0.008055681
1338	81.85	125.403	125.42863	0.007974291
1339	81.9	120.457	125.49234	0.008301718
1340	81.95	125.104	125.58392	0.00799335
1341	82	126.7	125.70321	0.00789266
1342	82.05	129.698	125.85049	0.007710219
1343	82.1	123.158	126.02636	0.008119651
1344	82.15	121.02	126.23185	0.008263097
1345	82.2	121.017	126.46835	0.008263302
1346	82.25	125.124	126.73768	0.007992072
1347	82.3	122.039	127.04212	0.008194102
1348	82.35	124.977	127.38443	0.008001472
1349	82.4	129.099	127.76797	0.007745993
1350	82.45	121.294	128.21807	0.008244431
1351	82.5	126.263	128.69875	0.007919977
1352	82.55	134.248	129.23334	0.007448901
1353	82.6	129.165	129.83034	0.007742035
1354	82.65	130.358	130.49774	0.007671182
1355	82.7	129.201	131.24513	0.007739878
1356	82.75	133.23	132.08396	0.007505817
1357	82.8	131.525	133.02802	0.007603117
1358	82.85	133.553	134.09399	0.007487664
1359	82.9	135.35	135.30219	0.007388253
1360	82.95	137.994	136.67752	0.007246692
1361	83	143.17	138.25074	0.006984703
1362	83.05	139.282	140.11139	0.007179679
1363	83.1	141.896	142.21761	0.007047415
1364	83.15	140.416	144.65744	0.007121696
1365	83.2	143.537	147.52151	0.006966845
1366	83.25	150.029	150.92592	0.006665378
1367	83.3	156.45	154.98379	0.006391818
1368	83.35	160.648	159.88461	0.00622479
1369	83.4	166.533	165.90243	0.006004816
1370	83.45	174.12	173.4708	0.005743166
1371	83.5	185.409	183.38537	0.005393481
1372	83.55	187.399	197.25108	0.005336208
1373	83.6	209.674	218.34117	0.004769309
1374	83.65	241.802	252.88135	0.004135615
1375	83.7	314.587	311.26542	0.003178771
1376	83.75	420.839	407.91149	0.002376206
1377	83.8	578.217	558.0347	0.001729455
1378	83.85	811.364	770.4223	0.001232492
1379	83.9	1092.685	1036.87715	0.000915177
1380	83.95	1414.625	1319.26385	0.000706901
1381	84	1663.385	1540.61934	0.000601184
1382	84.05	1742.951	1614.00273	0.00057374
1383	84.1	1632.935	1515.10895	0.000612394
1384	84.15	1361.756	1293.15327	0.000734346
1385	84.2	1052.203	1021.54585	0.000950387
1386	84.25	785.606	764.82086	0.001272903
1387	84.3	579.464	559.18479	0.001725733
1388	84.35	438.762	412.88888	0.00227914
1389	84.4	339.929	317.73259	0.002941791
1390	84.45	282.113	259.61605	0.003544679
1391	84.5	238.011	225.17559	0.004201486
1392	84.55	218.948	204.64095	0.004567295
1393	84.6	202.022	192.09262	0.004949956
1394	84.65	194.39	184.67321	0.005144298
1395	84.7	183.805	181.52412	0.005440548
1396	84.75	185.902	183.05155	0.005379178
1397	84.8	196.538	190.47584	0.005088075
1398	84.85	211.648	205.06377	0.004724826
1399	84.9	232.018	227.02089	0.00431001
1400	84.95	250.893	254.25669	0.003985763
1401	85	284.578	280.92596	0.003513975
1402	85.05	292.205	296.91956	0.003422255
1403	85.1	294.475	292.99555	0.003395874
1404	85.15	282.555	270.56392	0.003539134
1405	85.2	248.05	239.97699	0.004031445
1406	85.25	219.676	210.60374	0.004552159
1407	85.3	187.894	187.38323	0.00532215
1408	85.35	173.581	171.73195	0.005760999
1409	85.4	162.178	162.80134	0.006166064
1410	85.45	162.172	158.55092	0.006166293
1411	85.5	154.951	156.50671	0.006453653
1412	85.55	149.61	154.36377	0.006684045
1413	85.6	149.353	150.93424	0.006695547
1414	85.65	144.436	146.62452	0.006923482
1415	85.7	141.1	142.33925	0.007087172
1416	85.75	142.131	138.64609	0.007035763
1417	85.8	132.002	135.77156	0.007575643
1418	85.85	128.878	133.6875	0.007759276
1419	85.9	130.306	132.23173	0.007674244
1420	85.95	124.726	131.21326	0.008017575
1421	86	124.716	130.47679	0.008018217
1422	86.05	126.201	129.91514	0.007923867
1423	86.1	121.185	129.46485	0.008251846
1424	86.15	128.604	129.0948	0.007775808
1425	86.2	128.342	128.80829	0.007791682
1426	86.25	127.691	128.57688	0.007831406
1427	86.3	130.188	128.3679	0.007681199
1428	86.35	126.86	128.19696	0.007882705
1429	86.4	125.733	128.06193	0.007953361
1430	86.45	126.209	127.95997	0.007923365
1431	86.5	128.62	127.889	0.007774841
1432	86.55	121.22	127.84758	0.008249464
1433	86.6	126.062	127.83479	0.007932605
1434	86.65	125.59	127.85022	0.007962417
1435	86.7	124.096	127.89392	0.008058277
1436	86.75	124.349	127.96642	0.008041882
1437	86.8	121.878	128.0687	0.008204926
1438	86.85	126.075	128.20226	0.007931787
1439	86.9	126.128	128.36914	0.007928454
1440	86.95	131.413	128.57203	0.007609597
1441	87	121.859	128.81435	0.008206206
1442	87.05	126.614	129.10037	0.007898021
1443	87.1	135.016	129.43544	0.00740653
1444	87.15	120.892	129.82621	0.008271846
1445	87.2	125.378	130.28094	0.007975881
1446	87.25	126.874	130.80991	0.007881836
1447	87.3	121.852	131.42603	0.008206677
1448	87.35	127.099	132.1456	0.007867883
1449	87.4	127.385	132.98934	0.007850218
1450	87.45	123.691	133.98387	0.008084663
1451	87.5	130.662	135.1638	0.007653335
1452	87.55	132.807	136.57487	0.007529724
1453	87.6	134.647	138.27914	0.007426827
1454	87.65	133.768	140.36538	0.007475629
1455	87.7	136.454	142.97317	0.007328477
1456	87.75	133.816	146.35188	0.007472948
1457	87.8	136.378	150.99677	0.007332561
1458	87.85	146.693	157.91982	0.006816958
1459	87.9	166.009	169.07839	0.00602377
1460	87.95	170.69	187.833	0.005858574
1461	88	208.466	219.02849	0.004796945
1462	88.05	253.093	268.08057	0.003951117
1463	88.1	333.921	338.65561	0.00299472
1464	88.15	442.405	429.18735	0.002260372
1465	88.2	591.205	528.70853	0.001691461
1466	88.25	701.027	612.50895	0.001426479
1467	88.3	736.824	645.51734	0.001357176
1468	88.35	665.654	609.27039	0.001502282
1469	88.4	530.044	524.04548	0.001886636
1470	88.45	404.155	424.85817	0.002474298
1471	88.5	310.988	335.60183	0.003215558
1472	88.55	242.815	266.60454	0.004118362
1473	88.6	209.615	219.04481	0.004770651
1474	88.65	185.501	189.08021	0.005390807
1475	88.7	164.53	171.27806	0.006077919
1476	88.75	161.127	160.86427	0.006206284
1477	88.8	148.375	154.59164	0.00673968
1478	88.85	144.584	150.55885	0.006916395
1479	88.9	146.795	147.79922	0.006812221
1480	88.95	138.991	145.84488	0.00719471
1481	89	149.049	144.46502	0.006709203
1482	89.05	138.361	143.53593	0.00722747
1483	89.1	148.526	142.9853	0.006732828
1484	89.15	141.573	142.76849	0.007063494
1485	89.2	133.702	142.85854	0.00747932
1486	89.25	140.575	143.25681	0.00711364
1487	89.3	148.21	143.97721	0.006747183
1488	89.35	135.337	145.03893	0.007388962
1489	89.4	150.691	146.48521	0.006636096
1490	89.45	151.426	148.3752	0.006603886
1491	89.5	148.001	150.76282	0.006756711
1492	89.55	160.011	153.91932	0.00624957
1493	89.6	159.03	158.04369	0.006288122
1494	89.65	162.759	163.63526	0.006144053
1495	89.7	174.416	171.70803	0.005733419
1496	89.75	195.266	184.29305	0.005121219
1497	89.8	207.321	205.12909	0.004823438
1498	89.85	245.776	240.20364	0.004068746
1499	89.9	305.715	297.39892	0.00327102
1500	89.95	389.773	384.37828	0.002565596
1501	90	540.2	504.44719	0.001851166
1502	90.05	730.353	651.03163	0.001369201
1503	90.1	912.103	801.24786	0.001096367
1504	90.15	1052.358	910.91055	0.000950247
1505	90.2	1067.464	929.21528	0.0009368
1506	90.25	942.021	845.67362	0.001061547
1507	90.3	741.994	703.01211	0.00134772
1508	90.35	524.475	551.38466	0.001906669
1509	90.4	385.791	420.79347	0.002592077
1510	90.45	284.958	322.62402	0.003509289
1511	90.5	231.999	256.11993	0.004310363
1512	90.55	200.937	214.49449	0.004976684
1513	90.6	168.37	189.58199	0.0059393
1514	90.65	164.461	174.65578	0.006080469
1515	90.7	159.758	165.23212	0.006259467
1516	90.75	150.276	158.78458	0.006654423
1517	90.8	140.685	154.06506	0.007108078
1518	90.85	135.851	150.41403	0.007361006
1519	90.9	139.586	147.50346	0.007164042
1520	90.95	140.847	145.14377	0.007099903
1521	91	132.187	143.21134	0.00756504
1522	91.05	135.506	141.61853	0.007379747
1523	91.1	128.451	140.30034	0.00778507
1524	91.15	128.8	139.20749	0.007763975
1525	91.2	133.398	138.30208	0.007496364
1526	91.25	137.223	137.55471	0.007287408
1527	91.3	125.049	136.94243	0.007996865
1528	91.35	126.833	136.44726	0.007884383
1529	91.4	120.224	136.05512	0.008317807
1530	91.45	131.257	135.75502	0.007618641
1531	91.5	134.635	135.53859	0.007427489
1532	91.55	121.233	135.39939	0.008248579
1533	91.6	134.387	135.33275	0.007441196
1534	91.65	126.808	135.3356	0.007885938
1535	91.7	126.272	135.40629	0.007919412
1536	91.75	129.167	135.54446	0.007741916
1537	91.8	132.051	135.75102	0.007572832
1538	91.85	133.87	136.02819	0.007469934
1539	91.9	135.377	136.37952	0.007386779
1540	91.95	137.561	136.81004	0.007269502
1541	92	128.459	137.32645	0.007784585
1542	92.05	131.117	137.93738	0.007626776
1543	92.1	129.793	138.65374	0.007704576
1544	92.15	132.907	139.48919	0.007524058
1545	92.2	133.817	140.46078	0.007472892
1546	92.25	134.731	141.5898	0.007422197
1547	92.3	138.127	142.90288	0.007239714
1548	92.35	141.627	144.43355	0.007060801
1549	92.4	144.213	146.22429	0.006934188
1550	92.45	141.156	148.3294	0.007084361
1551	92.5	148.649	150.81907	0.006727257
1552	92.55	153.244	153.78549	0.006525541
1553	92.6	157.121	157.35313	0.006364522
1554	92.65	163.385	161.69893	0.006120513
1555	92.7	170.55	167.09861	0.005863383
1556	92.75	178.353	174.0363	0.005606858
1557	92.8	201.632	183.44874	0.00495953
1558	92.85	221.91	197.19675	0.004506331
1559	92.9	257.394	218.79554	0.003885094
1560	92.95	294.138	254.19132	0.003399765
1561	93	361.29	311.94103	0.00276786
1562	93.05	452.76	401.79284	0.002208676
1563	93.1	569.091	530.98563	0.001757188
1564	93.15	723.529	698.54095	0.001382115
1565	93.2	875.159	888.25988	0.00114265
1566	93.25	999.859	1060.80598	0.001000141
1567	93.3	1075.154	1154.55575	0.000930099
1568	93.35	1021.752	1124.30125	0.000978711
1569	93.4	923.123	992.10583	0.001083279
1570	93.45	772.672	823.22509	0.00129421
1571	93.5	651.727	671.65453	0.001534385
1572	93.55	571.148	565.26306	0.00175086
1573	93.6	533.876	510.93786	0.001873094
1574	93.65	529.004	500.19971	0.001890345
1575	93.7	537.505	513.22869	0.001860448
1576	93.75	540.531	523.39436	0.001850033
1577	93.8	511.211	510.07182	0.001956139
1578	93.85	460.887	473.90532	0.002169729
1579	93.9	420.038	429.49503	0.002380737
1580	93.95	384.685	387.59768	0.002599529
1581	94	342.308	349.70743	0.002921346
1582	94.05	320.092	312.62557	0.003124102
1583	94.1	273.322	275.83883	0.003658688
1584	94.15	236.717	242.31652	0.004224454
1585	94.2	204.107	214.50905	0.004899391
1586	94.25	185.139	193.01017	0.005401347
1587	94.3	173.142	177.32776	0.005775606
1588	94.35	162.353	166.38754	0.006159418
1589	94.4	156.218	158.92797	0.006401311
1590	94.45	143.451	153.80186	0.006971021
1591	94.5	144.349	150.14446	0.006927655
1592	94.55	140.599	147.39255	0.007112426
1593	94.6	138.838	145.21573	0.007202639
1594	94.65	139.777	143.43002	0.007154253
1595	94.7	130.554	141.93131	0.007659666
1596	94.75	131.317	140.65607	0.00761516
1597	94.8	131.445	139.56152	0.007607745
1598	94.85	128.345	138.61615	0.007791499
1599	94.9	134.547	137.78304	0.007432347
1600	94.95	136.113	137.07758	0.007346837
1601	95	139.698	136.46307	0.007158299
1602	95.05	128.818	135.92447	0.00776289
1603	95.1	137.796	135.45191	0.007257105
1604	95.15	130.29	135.03523	0.007675186
1605	95.2	137.951	134.66431	0.007248951
1606	95.25	128.556	134.33296	0.007778711
1607	95.3	122.649	134.04265	0.008153348
1608	95.35	128.064	133.78678	0.007808596
1609	95.4	133.146	133.56583	0.007510552
1610	95.45	131.941	133.37809	0.007579145
1611	95.5	133.413	133.22139	0.007495521
1612	95.55	126.448	133.09336	0.007908389
1613	95.6	128.615	132.99176	0.007775143
1614	95.65	128.677	132.91014	0.007771397
1615	95.7	131.215	132.85201	0.00762108
1616	95.75	131.762	132.82073	0.007589442
1617	95.8	131.859	132.811	0.007583859
1618	95.85	137.107	132.82239	0.007293574
1619	95.9	134.983	132.85467	0.00740834
1620	95.95	132.164	132.90785	0.007566357
1621	96	132.743	132.98214	0.007533354
1622	96.05	130.818	133.07795	0.007644208
1623	96.1	135.77	133.19593	0.007365397
1624	96.15	126.648	133.33693	0.0078959
1625	96.2	131.581	133.50208	0.007599881
1626	96.25	127.359	133.69278	0.00785182
1627	96.3	122.356	133.91074	0.008172873
1628	96.35	129.454	134.15803	0.007724752
1629	96.4	137.996	134.43714	0.007246587
1630	96.45	134.362	134.75102	0.00744258
1631	96.5	132.904	135.10322	0.007524228
1632	96.55	132.489	135.49793	0.007547796
1633	96.6	136.524	135.94018	0.007324719
1634	96.65	139.53	136.43596	0.007166918
1635	96.7	134.777	136.99247	0.007419664
1636	96.75	134.604	137.61842	0.0074292
1637	96.8	135.814	138.32433	0.007363011
1638	96.85	136.401	139.12305	0.007331325
1639	96.9	136.386	140.0304	0.007332131
1640	96.95	135.762	141.06595	0.007365831
1641	97	140.959	142.25417	0.007094261
1642	97.05	144.52	143.62594	0.006919458
1643	97.1	145.296	145.22066	0.006882502
1644	97.15	141.841	147.08937	0.007050148
1645	97.2	146.949	149.29965	0.006805082
1646	97.25	140.388	151.94465	0.007123116
1647	97.3	148.616	155.16237	0.006728751
1648	97.35	151.356	159.1801	0.00660694
1649	97.4	169.972	164.41416	0.005883322
1650	97.45	166.771	171.68813	0.005996246
1651	97.5	182.19	182.52156	0.005488775
1652	97.55	208.04	199.64315	0.004806768
1653	97.6	234.752	227.31059	0.004259815
1654	97.65	279.585	271.08794	0.00357673
1655	97.7	360.206	336.56245	0.002776189
1656	97.75	463.615	426.79576	0.002156962
1657	97.8	599.14	538.81527	0.001669059
1658	97.85	723.683	659.342	0.00138182
1659	97.9	813.456	760.38458	0.001229323
1660	97.95	834.721	803.48224	0.001198005
1661	98	745.338	767.20504	0.001341673
1662	98.05	621.551	670.51628	0.001608878
1663	98.1	473.009	551.75525	0.002114125
1664	98.15	381.254	440.00946	0.002622923
1665	98.2	306.973	349.53973	0.003257615
1666	98.25	252.94	283.9595	0.003953507
1667	98.3	225.791	240.56234	0.004428874
1668	98.35	206.099	213.90708	0.004852037
1669	98.4	194.475	198.42072	0.005142049
1670	98.45	187.432	189.78354	0.005335268
1671	98.5	186.99	185.27532	0.00534788
1672	98.55	173.209	183.44781	0.005773372
1673	98.6	177.308	183.75016	0.005639903
1674	98.65	192.21	186.3075	0.005202643
1675	98.7	192.722	191.92429	0.005188821
1676	98.75	198.947	202.2382	0.005026464
1677	98.8	225.715	219.82919	0.004430366
1678	98.85	263.564	247.99458	0.003794145
1679	98.9	307.836	289.84344	0.003248483
1680	98.95	367.219	346.6489	0.002723171
1681	99	436.445	415.90343	0.002291239
1682	99.05	504.556	488.70374	0.001981941
1683	99.1	572.893	547.45622	0.001745527
1684	99.15	560.751	570.0972	0.001783323
1685	99.2	526.161	547.45096	0.001900559
1686	99.25	457.058	493.54986	0.002187906
1687	99.3	394.944	431.24288	0.002532005
1688	99.35	370.65	377.57007	0.002697963
1689	99.4	340.789	342.50911	0.002934367
1690	99.45	345.338	331.78232	0.002895714
1691	99.5	369.612	350.20122	0.00270554
1692	99.55	440.241	403.28191	0.002271483
1693	99.6	529.082	497.09454	0.001890066
1694	99.65	680.951	635.46206	0.001468534
1695	99.7	880.622	815.1046	0.001135561
1696	99.75	1092.446	1019.21428	0.000915377
1697	99.8	1270.308	1209.91445	0.000787211
1698	99.85	1361.086	1329.87339	0.000734707
1699	99.9	1353.578	1337.32637	0.000738783
1700	99.95	1221.853	1248.238	0.000818429
1701	100	1071.414	1114.39183	0.000933346
1702	100.05	929.696	973.15931	0.00107562
1703	100.1	786.883	834.25295	0.001270837
1704	100.15	652.046	697.45859	0.001533634
1705	100.2	522.051	569.4568	0.001915522
1706	100.25	430.791	459.90978	0.002321311
1707	100.3	347.11	373.21749	0.002880931
1708	100.35	282.617	308.57418	0.003538358
1709	100.4	238.459	262.62744	0.004193593
1710	100.45	210.077	231.16082	0.004760159
1711	100.5	187.896	210.03059	0.005322093
1712	100.55	179.43	195.77934	0.005573204
1713	100.6	170.556	185.86473	0.005863177
1714	100.65	163.008	178.63592	0.006134668
1715	100.7	159.728	173.11116	0.006260643
1716	100.75	153.689	168.73504	0.006506647
1717	100.8	148.071	165.19264	0.006753517
1718	100.85	149.643	162.29556	0.006682571
1719	100.9	149.198	159.92201	0.006702503
1720	100.95	148.942	157.98769	0.006714023
1721	101	148.291	156.4333	0.006743498
1722	101.05	146.592	155.21797	0.006821655
1723	101.1	137.878	154.31422	0.007252789
1724	101.15	141.606	153.70814	0.007061848
1725	101.2	143.812	153.39899	0.006953523
1726	101.25	141.334	153.40147	0.007075438
1727	101.3	147.588	153.7528	0.006775619
1728	101.35	152.157	154.52997	0.006572159
1729	101.4	148.719	155.88801	0.00672409
1730	101.45	149.402	158.13477	0.006693351
1731	101.5	153.737	161.85029	0.006504615
1732	101.55	167.648	168.05819	0.005964879
1733	101.6	177.819	178.25974	0.005623696
1734	101.65	195.235	194.42322	0.005122032
1735	101.7	232.326	218.52155	0.004304297
1736	101.75	255.314	251.70213	0.003916746
1737	101.8	296.235	293.12505	0.003375698
1738	101.85	339.493	338.54528	0.002945569
1739	101.9	368.798	378.73666	0.002711511
1740	101.95	365.174	400.11978	0.002738421
1741	102	354.68	392.96641	0.002819443
1742	102.05	316.274	361.04992	0.003161815
1743	102.1	276.659	317.49756	0.003614558
1744	102.15	244.942	274.16885	0.004082599
1745	102.2	215.341	237.81769	0.004643798
1746	102.25	199.361	211.03015	0.005016026
1747	102.3	194.229	193.72276	0.005148562
1748	102.35	184.765	184.34655	0.00541228
1749	102.4	186.313	180.78807	0.005367312
1750	102.45	182.621	180.86631	0.005475822
1751	102.5	176.958	182.42042	0.005651058
1752	102.55	175.817	183.33613	0.005687732
1753	102.6	187.375	182.17745	0.005336891
1754	102.65	178.791	179.04008	0.005593123
1755	102.7	171.766	175.13144	0.005821874
1756	102.75	172.714	171.65138	0.005789919
1757	102.8	166.125	169.33952	0.006019564
1758	102.85	165.538	168.55886	0.006040909
1759	102.9	171.838	169.47787	0.005819435
1760	102.95	183.276	172.25261	0.005456252
1761	103	189.198	177.20712	0.005285468
1762	103.05	202.05	184.99673	0.00494927
1763	103.1	207.844	196.74068	0.004811301
1764	103.15	224.573	214.13108	0.004452895
1765	103.2	257.475	239.53129	0.003883872
1766	103.25	307.23	276.00788	0.00325489
1767	103.3	350.985	327.03697	0.002849125
1768	103.35	425.62	395.51017	0.002349514
1769	103.4	485.079	482.4867	0.00206152
1770	103.45	593.336	587.1281	0.001685386
1771	103.5	710.171	705.99653	0.001408112
1772	103.55	846.98	827.72361	0.001180665
1773	103.6	939.354	925.66419	0.001064561
1774	103.65	977.249	962.11853	0.001023281
1775	103.7	918.449	915.59876	0.001088792
1776	103.75	784.395	803.47211	0.001274868
1777	103.8	624.274	664.22596	0.001601861
1778	103.85	485.173	529.52415	0.00206112
1779	103.9	378.119	416.34332	0.00264467
1780	103.95	302.179	330.26913	0.003309297
1781	104	254	269.82601	0.003937008
1782	104.05	214.317	229.84482	0.004665985
1783	104.1	196.516	204.30143	0.005088644
1784	104.15	179.225	188.03306	0.005579579
1785	104.2	169.882	177.28794	0.005886439
1786	104.25	167.186	169.76503	0.005981362
1787	104.3	161.027	164.15758	0.006210139
1788	104.35	154.335	159.76202	0.006479412
1789	104.4	144.53	156.19939	0.006918979
1790	104.45	144.56	153.24833	0.006917543
1791	104.5	140.235	150.7696	0.007130887
1792	104.55	144.052	148.66613	0.006941938
1793	104.6	141.646	146.86605	0.007059853
1794	104.65	139.122	145.31429	0.007187936
1795	104.7	133.14	143.96781	0.007510891
1796	104.75	134.979	142.7925	0.00740856
1797	104.8	142.224	141.76107	0.007031162
1798	104.85	139.199	140.85148	0.00718396
1799	104.9	136.837	140.04575	0.007307965
1800	104.95	131.229	139.32913	0.007620267
1801	105	140.484	138.68942	0.007118248
1802	105.05	127.667	138.11649	0.007832878
1803	105.1	138.464	137.60184	0.007222094
1804	105.15	135.232	137.14484	0.007394699
1805	105.2	135.756	136.73634	0.007366157
1806	105.25	129.102	136.36277	0.007745813
1807	105.3	129.479	136.02245	0.00772326
1808	105.35	132.252	135.71275	0.007561322
1809	105.4	134.556	135.43615	0.00743185
1810	105.45	135.129	135.184	0.007400336
1811	105.5	127.729	134.95207	0.007829076
1812	105.55	135.243	134.74028	0.007394098
1813	105.6	132.849	134.54719	0.007527343
1814	105.65	132.065	134.37133	0.007572029
1815	105.7	130.931	134.21136	0.007637611
1816	105.75	133.752	134.06614	0.007476524
1817	105.8	138.864	133.93469	0.00720129
1818	105.85	133.373	133.81605	0.007497769
1819	105.9	133.088	133.70937	0.007513825
1820	105.95	125.37	133.61392	0.00797639
1821	106	134.484	133.48429	0.007435829
1822	106.05	136.655	133.40972	0.007317698
1823	106.1	129.444	133.34468	0.007725348
1824	106.15	133.955	133.29179	0.007465194
1825	106.2	127.582	133.24904	0.007838096
1826	106.25	132.517	133.21212	0.007546202
1827	106.3	131.671	133.18995	0.007594687
1828	106.35	135.405	133.17945	0.007385252
1829	106.4	130.997	133.17101	0.007633763
1830	106.45	132.191	133.16781	0.007564812
1831	106.5	134.143	133.17106	0.007454731
1832	106.55	143.126	133.1813	0.006986851
1833	106.6	129.02	133.20021	0.007750736
1834	106.65	131.218	133.22829	0.007620906
1835	106.7	137.286	133.26912	0.007284064
1836	106.75	133.376	133.32163	0.007497601
1837	106.8	130.758	133.37633	0.007647716
1838	106.85	124.885	133.43819	0.008007367
1839	106.9	136.08	133.52298	0.007348618
1840	106.95	137.387	133.61387	0.007278709
1841	107	131.113	133.71496	0.007627009
1842	107.05	133.691	133.82458	0.007479935
1843	107.1	139.133	133.94514	0.007187367
1844	107.15	134.087	134.07488	0.007457845
1845	107.2	135.224	134.21652	0.007395137
1846	107.25	132.422	134.372	0.007551615
1847	107.3	135.304	134.54309	0.007390765
1848	107.35	141.121	134.73168	0.007086118
1849	107.4	134.96	134.93978	0.007409603
1850	107.45	137.888	135.16967	0.007252263
1851	107.5	133.226	135.42386	0.007506042
1852	107.55	139.774	135.70531	0.007154406
1853	107.6	147.052	136.0174	0.006800316
1854	107.65	143.119	136.36412	0.006987192
1855	107.7	137.056	136.75012	0.007296288
1856	107.75	137.658	137.18096	0.00726438
1857	107.8	144.976	137.66322	0.006897693
1858	107.85	136.878	138.20482	0.007305776
1859	107.9	141.359	138.8153	0.007074187
1860	107.95	144.731	139.50623	0.00690937
1861	108	142.99	140.29175	0.006993496
1862	108.05	139.859	141.1893	0.007150058
1863	108.1	139.122	142.22051	0.007187936
1864	108.15	147.827	143.41255	0.006764664
1865	108.2	145.11	144.79996	0.006891324
1866	108.25	150.283	146.42758	0.006654113
1867	108.3	156.499	148.3557	0.006389817
1868	108.35	166.391	150.67038	0.00600994
1869	108.4	168.613	153.50513	0.005930741
1870	108.45	175.342	157.08596	0.00570314
1871	108.5	178.931	161.81808	0.005588747
1872	108.55	195.927	168.43269	0.005103942
1873	108.6	206.334	178.1943	0.004846511
1874	108.65	221.541	193.11757	0.004513837
1875	108.7	253.718	216.06124	0.003941384
1876	108.75	289.042	250.49613	0.003459705
1877	108.8	335.945	299.76025	0.002976678
1878	108.85	393.566	365.75899	0.00254087
1879	108.9	461.028	447.22811	0.002169066
1880	108.95	545.339	537.5914	0.001833722
1881	109	617.172	622.47075	0.001620294
1882	109.05	648.71	679.48397	0.001541521
1883	109.1	640.181	687.61779	0.001562058
1884	109.15	610.568	643.83703	0.001637819
1885	109.2	541.097	565.47971	0.001848097
1886	109.25	461.029	475.43878	0.002169061
1887	109.3	387.909	390.5249	0.002577924
1888	109.35	328.805	319.51076	0.003041316
1889	109.4	280.108	265.13428	0.003570052
1890	109.45	245.862	226.38442	0.004067322
1891	109.5	223.963	200.20332	0.004465023
1892	109.55	199.907	183.08526	0.005002326
1893	109.6	185.157	171.95397	0.005400822
1894	109.65	183.67	164.53718	0.005444547
1895	109.7	175.388	159.35452	0.005701644
1896	109.75	168.145	155.52627	0.005947248
1897	109.8	161.869	152.55811	0.006177835
1898	109.85	158.46	150.1755	0.006310741
1899	109.9	155.622	148.20291	0.006425827
1900	109.95	154.485	146.57548	0.00647312
1901	110	147.855	145.20878	0.006763383
1902	110.05	147.572	144.0538	0.006776353
1903	110.1	158.128	143.07329	0.006323991
1904	110.15	147.245	142.23584	0.006791402
1905	110.2	139.044	141.52018	0.007191968
1906	110.25	145.091	140.91201	0.006892226
1907	110.3	140.736	140.39349	0.007105503
1908	110.35	140.496	139.95278	0.00711764
1909	110.4	141.51	139.58034	0.007066638
1910	110.45	138.875	139.26844	0.00720072
1911	110.5	137.057	139.01084	0.007296234
1912	110.55	138.108	138.80256	0.00724071
1913	110.6	146.251	138.63965	0.00683756
1914	110.65	145.067	138.5191	0.006893367
1915	110.7	136.149	138.43867	0.007344894
1916	110.75	137.521	138.39689	0.007271617
1917	110.8	140.527	138.39296	0.00711607
1918	110.85	144.834	138.4268	0.006904456
1919	110.9	137.793	138.49899	0.007257263
1920	110.95	137.361	138.61088	0.007280087
1921	111	143.263	138.76463	0.006980169
1922	111.05	141.994	138.96335	0.007042551
1923	111.1	132.114	139.21127	0.007569221
1924	111.15	143.817	139.51398	0.006953281
1925	111.2	143.946	139.87879	0.00694705
1926	111.25	144.601	140.31523	0.006915581
1927	111.3	139.877	140.83593	0.007149138
1928	111.35	147.577	141.45818	0.006776124
1929	111.4	149.141	142.20702	0.006705064
1930	111.45	139.568	143.12174	0.007164966
1931	111.5	139.378	144.26864	0.007174733
1932	111.55	144.57	145.76443	0.006917064
1933	111.6	145.408	147.8138	0.006877201
1934	111.65	141.887	150.75961	0.007047862
1935	111.7	151.082	155.13216	0.006618922
1936	111.75	157.3	161.66595	0.006357279
1937	111.8	159.667	171.23944	0.006263035
1938	111.85	171.245	184.69797	0.005839587
1939	111.9	190.923	202.55163	0.005237714
1940	111.95	216.4	224.57324	0.004621072
1941	112	257.906	249.3037	0.003877382
1942	112.05	295.702	273.46087	0.003381783
1943	112.1	319.354	291.70704	0.003131321
1944	112.15	333.629	298.31918	0.002997341
1945	112.2	307.148	291.06629	0.003255759
1946	112.25	271.302	273.02868	0.003685929
1947	112.3	240.787	249.89748	0.004153048
1948	112.35	221.939	226.64148	0.004505743
1949	112.4	195.812	206.31492	0.005106939
1950	112.45	183.827	190.27181	0.005439897
1951	112.5	172.928	178.69541	0.005782754
1952	112.55	170.464	171.08914	0.005866341
1953	112.6	163.792	166.6869	0.006105304
1954	112.65	161.327	164.76142	0.00619859
1955	112.7	161.043	164.81051	0.006209522
1956	112.75	167.988	166.62748	0.005952806
1957	112.8	166.68	170.28241	0.00599952
1958	112.85	170.048	176.03795	0.005880693
1959	112.9	184.411	184.21668	0.00542267
1960	112.95	196.003	195.0404	0.005101963
1961	113	206.077	208.42884	0.004852555
1962	113.05	223.227	223.8388	0.004479745
1963	113.1	246.304	240.09006	0.004060023
1964	113.15	262.297	255.50127	0.003812472
1965	113.2	277.581	269.01493	0.003602552
1966	113.25	297.753	282.05201	0.003358488
1967	113.3	325.616	298.95584	0.003071102
1968	113.35	345.664	325.28352	0.002892983
1969	113.4	382.321	365.71472	0.002615603
1970	113.45	431.566	422.46004	0.002317143
1971	113.5	493.753	493.96382	0.002025304
1972	113.55	559.968	573.48678	0.001785816
1973	113.6	631.089	647.4793	0.001584563
1974	113.65	675.996	696.45139	0.001479299
1975	113.7	668.305	703.27111	0.001496323
1976	113.75	656.64	665.30357	0.001522904
1977	113.8	597.103	595.74752	0.001674753
1978	113.85	522.084	513.21159	0.001915401
1979	113.9	454.831	432.72749	0.002198619
1980	113.95	397.453	363.22808	0.002516021
1981	114	348.328	308.48065	0.002870857
1982	114.05	309.866	268.74901	0.003227201
1983	114.1	282.275	242.34889	0.003542645
1984	114.15	269.165	226.96534	0.003715193
1985	114.2	266.352	220.64611	0.00375443
1986	114.25	269.058	222.40065	0.003716671
1987	114.3	265.229	232.36944	0.003770327
1988	114.35	288.827	251.63859	0.00346228
1989	114.4	308.978	281.70787	0.003236476
1990	114.45	338.733	323.66636	0.002952178
1991	114.5	383.005	377.18182	0.002610932
1992	114.55	453.08	439.29211	0.002207116
1993	114.6	520.552	503.17078	0.001921038
1994	114.65	591.901	556.8862	0.001689472
1995	114.7	626.374	585.73834	0.00159649
1996	114.75	630.937	580.20492	0.001584944
1997	114.8	590.638	543.23051	0.001693084
1998	114.85	529.529	487.50377	0.001888471
1999	114.9	457.827	427.09493	0.002184231
2000	114.95	393.82	372.28453	0.002539231
2001	115	330.888	328.6364	0.003022171
2002	115.05	309.371	297.78703	0.003232365
2003	115.1	285.699	278.42837	0.003500187
2004	115.15	266.021	267.13805	0.003759102
2005	115.2	270.911	259.3037	0.003691249
2006	115.25	264.406	250.6828	0.003782062
2007	115.3	253.16	239.20718	0.003950071
2008	115.35	243.691	225.32444	0.004103557
2009	115.4	212.568	210.69022	0.004704377
2010	115.45	196.987	196.87479	0.005076477
2011	115.5	196.28	184.86665	0.005094763
2012	115.55	173.528	175.07537	0.005762759
2013	115.6	164.782	167.48799	0.006068624
2014	115.65	163.296	161.83019	0.006123849
2015	115.7	156.546	157.70984	0.006387899
2016	115.75	156.309	154.72754	0.006397584
2017	115.8	155.876	152.5435	0.006415356
2018	115.85	150.503	150.89912	0.006644386
2019	115.9	142.406	149.6078	0.007022176
2020	115.95	141.274	148.59193	0.007078443
2021	116	150.23	147.764	0.00665646
2022	116.05	147.777	147.08079	0.006766953
2023	116.1	144.765	146.51495	0.006907747
2024	116.15	142.659	146.04796	0.007009722
2025	116.2	142.252	145.66657	0.007029778
2026	116.25	147.441	145.36081	0.006782374
2027	116.3	140.367	145.12303	0.007124182
2028	116.35	140.95	144.9473	0.007094714
2029	116.4	141.895	144.82907	0.007047465
2030	116.45	141.926	144.7649	0.007045925
2031	116.5	146.396	144.75236	0.006830788
2032	116.55	142.793	144.78985	0.007003144
2033	116.6	138.739	144.87659	0.007207779
2034	116.65	142.644	145.01251	0.00701046
2035	116.7	145.429	145.14365	0.006876208
2036	116.75	146.411	145.37273	0.006830088
2037	116.8	147.976	145.66362	0.006757853
2038	116.85	144.471	146.01095	0.006921804
2039	116.9	147.396	146.41865	0.006784445
2040	116.95	139.727	146.88525	0.007156813
2041	117	138.258	147.41794	0.007232855
2042	117.05	140.807	148.04155	0.00710192
2043	117.1	147.058	148.75381	0.006800038
2044	117.15	148.951	149.56595	0.006713617
2045	117.2	143.651	150.49195	0.006961316
2046	117.25	146.432	151.54905	0.006829108
2047	117.3	145.322	152.7586	0.006881271
2048	117.35	152.311	154.14742	0.006565514
2049	117.4	146.748	155.74995	0.006814403
2050	117.45	151.335	157.6121	0.006607857
2051	117.5	155.469	159.79854	0.00643215
2052	117.55	153.85	162.40692	0.006499838
2053	117.6	159.795	165.59439	0.006258018
2054	117.65	164.857	169.62379	0.006065863
2055	117.7	171.265	174.93653	0.005838905
2056	117.75	178.311	182.25133	0.005608179
2057	117.8	195.59	192.67191	0.005112736
2058	117.85	206.624	207.75956	0.004839709
2059	117.9	232.264	229.49968	0.004305446
2060	117.95	255.426	260.08293	0.003915028
2061	118	284.966	301.45057	0.003509191
2062	118.05	332.898	354.61393	0.003003923
2063	118.1	386.687	418.79556	0.002586071
2064	118.15	457.47	490.38489	0.002185936
2065	118.2	529.697	561.69613	0.001887872
2066	118.25	599.839	620.3109	0.001667114
2067	118.3	629.782	651.7195	0.001587851
2068	118.35	617.459	646.84998	0.001619541
2069	118.4	593.078	608.25723	0.001686119
2070	118.45	537.154	547.62554	0.001861664
2071	118.5	458.799	478.50119	0.002179604
2072	118.55	408.839	411.47139	0.002445951
2073	118.6	349.997	352.97153	0.002857167
2074	118.65	306.428	305.87241	0.003263409
2075	118.7	281.918	270.50647	0.003547131
2076	118.75	259.615	245.65651	0.003851858
2077	118.8	234.558	229.39351	0.004263338
2078	118.85	228.113	219.71245	0.004383792
2079	118.9	229.443	214.93949	0.004358381
2080	118.95	227.877	213.93773	0.004388332
2081	119	230.969	216.18543	0.004329585
2082	119.05	235.844	221.8098	0.004240091
2083	119.1	250.476	231.61779	0.003992398
2084	119.15	273.119	247.19964	0.003661408
2085	119.2	294.6	270.86623	0.003394433
2086	119.25	321.53	305.54192	0.00311013
2087	119.3	369.389	354.35635	0.002707173
2088	119.35	425.523	419.92276	0.002350049
2089	119.4	490.968	503.36828	0.002036793
2090	119.45	561.422	602.96032	0.001781191
2091	119.5	650.645	712.67818	0.001536936
2092	119.55	752.827	820.49576	0.001328326
2093	119.6	855.171	907.79463	0.001169357
2094	119.65	925.254	953.8404	0.001080784
2095	119.7	924.845	946.6042	0.001081262
2096	119.75	890.473	890.67831	0.001122999
2097	119.8	816.67	803.33942	0.001224485
2098	119.85	725.42	704.74174	0.001378512
2099	119.9	650.997	611.4831	0.001536105
2100	119.95	594.076	534.94988	0.001683286
2101	120	538.178	482.05351	0.001858121
2102	120.05	507.875	456.53235	0.001968988
2103	120.1	502.338	460.0172	0.001990692
2104	120.15	513.135	492.59034	0.001948805
2105	120.2	559.703	552.76656	0.001786662
2106	120.25	630.584	636.90847	0.001585832
2107	120.3	698.472	738.09098	0.001431697
2108	120.35	791.246	844.41614	0.001263829
2109	120.4	893.182	937.70524	0.001119593
2110	120.45	951.832	995.7965	0.001050606
2111	120.5	984.101	1001.67097	0.001016156
2112	120.55	946.713	953.66974	0.001056286
2113	120.6	866.371	865.43594	0.00115424
2114	120.65	784.126	756.62347	0.001275305
2115	120.7	674.337	644.55427	0.001482938
2116	120.75	573.886	540.99001	0.001742506
2117	120.8	490.112	452.29254	0.00204035
2118	120.85	418.778	380.72609	0.0023879
2119	120.9	364.752	325.76865	0.002741589
2120	120.95	310.545	285.23326	0.003220145
2121	121	280.718	256.2237	0.003562294
2122	121.05	250.061	235.84386	0.003999024
2123	121.1	235.055	221.58821	0.004254323
2124	121.15	221.535	211.61028	0.004513959
2125	121.2	209.864	204.57947	0.004764991
2126	121.25	202.313	199.61049	0.004942836
2127	121.3	197.478	196.17316	0.005063855
2128	121.35	189.219	193.98397	0.005284882
2129	121.4	191.742	192.94721	0.005215341
2130	121.45	188.937	193.13086	0.00529277
2131	121.5	191.429	194.76615	0.005223869
2132	121.55	193.772	198.25374	0.005160704
2133	121.6	196.833	204.15463	0.005080449
2134	121.65	205.954	213.14123	0.004855453
2135	121.7	215.795	225.89165	0.004634028
2136	121.75	220.474	242.92038	0.004535682
2137	121.8	247.871	264.35544	0.004034357
2138	121.85	273.04	289.67092	0.003662467
2139	121.9	308.001	317.3636	0.003246743
2140	121.95	337.448	344.60057	0.00296342
2141	122	372.45	367.16771	0.002684924
2142	122.05	389.301	380.50936	0.002568706
2143	122.1	391.148	382.02595	0.002556577
2144	122.15	373.672	372.75775	0.002676144
2145	122.2	357.529	356.69387	0.002796976
2146	122.25	346.791	338.81543	0.002883581
2147	122.3	317.687	323.7401	0.003147752
2148	122.35	315.463	315.35396	0.003169944
2149	122.4	317.207	316.95725	0.003152516
2150	122.45	342.985	331.4937	0.002915579
2151	122.5	362.069	361.69164	0.002761904
2152	122.55	400.419	409.91223	0.002497384
2153	122.6	472.157	477.70837	0.00211794
2154	122.65	559.152	565.09144	0.001788422
2155	122.7	652.902	669.50796	0.001531623
2156	122.75	757.735	784.5064	0.001319723
2157	122.8	895.013	898.3759	0.001117302
2158	122.85	1026.358	994.23249	0.000974319
2159	122.9	1115.399	1054.02228	0.00089654
2160	122.95	1133.634	1065.79788	0.000882119
2161	123	1106.774	1028.40098	0.000903527
2162	123.05	1003.364	950.52754	0.000996647
2163	123.1	902.705	846.73151	0.001107782
2164	123.15	770.247	732.66517	0.001298285
2165	123.2	643.125	621.36641	0.001554908
2166	123.25	538.721	521.50184	0.001856248
2167	123.3	449.257	437.50355	0.002225897
2168	123.35	378.018	370.46462	0.002645377
2169	123.4	330.798	319.24689	0.003022993
2170	123.45	290.459	281.49521	0.003442827
2171	123.5	262.858	254.432	0.003804335
2172	123.55	248.52	235.39531	0.004023821
2173	123.6	236.35	222.13598	0.004231013
2174	123.65	220.49	212.92255	0.004535353
2175	123.7	209.194	206.52084	0.004780252
2176	123.75	207.067	202.10068	0.004829355
2177	123.8	198.404	199.13659	0.005040221
2178	123.85	204.869	197.31715	0.004881168
2179	123.9	194.156	196.47328	0.005150498
2180	123.95	197.174	196.53612	0.005071663
2181	124	198.722	197.51679	0.005032155
2182	124.05	196.078	199.51055	0.005100011
2183	124.1	208.377	202.7225	0.004798994
2184	124.15	209.43	207.5164	0.004774865
2185	124.2	228.139	214.48884	0.004383293
2186	124.25	225.727	224.56345	0.00443013
2187	124.3	248.4	239.08844	0.004025765
2188	124.35	275.166	259.90352	0.00363417
2189	124.4	304.621	289.32508	0.003282768
2190	124.45	344.044	329.98864	0.002906605
2191	124.5	382.151	384.4979	0.002616767
2192	124.55	438.54	454.85908	0.002280294
2193	124.6	511.605	541.7247	0.001954633
2194	124.65	599.07	643.51251	0.001669254
2195	124.7	708.66	755.46571	0.001411114
2196	124.75	844.105	868.68877	0.001184687
2197	124.8	966.141	969.56064	0.001035046
2198	124.85	1067.611	1041.27429	0.000936671
2199	124.9	1108.128	1069.42751	0.000902423
2200	124.95	1105.886	1048.92409	0.000904252
2201	125	1033.406	985.70668	0.000967674
2202	125.05	920.562	892.56413	0.001086293
2203	125.1	810.295	783.98582	0.001234118
2204	125.15	691.174	672.86038	0.001446814
2205	125.2	578.407	568.80027	0.001728886
2206	125.25	474.971	477.6909	0.002105392
2207	125.3	406.557	402.10443	0.00245968
2208	125.35	350.418	342.11978	0.002853735
2209	125.4	288.043	296.21642	0.003471704
2210	125.45	263.515	262.0675	0.00379485
2211	125.5	238.028	237.14674	0.004201186
2212	125.55	216.556	219.12347	0.004617743
2213	125.6	209.623	206.06537	0.004770469
2214	125.65	196.259	196.49613	0.005095308
2215	125.7	187.969	189.36268	0.005320026
2216	125.75	181.545	183.9605	0.005508276
2217	125.8	176.866	179.85139	0.005653998
2218	125.85	174.805	176.79183	0.00572066
2219	125.9	174.17	174.67802	0.005741517
2220	125.95	169.21	173.50438	0.005909816
2221	126	169.141	173.32919	0.005912227
2222	126.05	168.422	174.2402	0.005937467
2223	126.1	171.868	176.31573	0.005818419
2224	126.15	177.282	179.57997	0.005640731
2225	126.2	179.126	183.95283	0.005582662
2226	126.25	183.522	189.19262	0.005448938
2227	126.3	195.375	194.82902	0.005118362
2228	126.35	197.805	200.10477	0.005055484
2229	126.4	203.694	204.01286	0.004909325
2230	126.45	206.8	205.56173	0.00483559
2231	126.5	212.378	204.21973	0.004708586
2232	126.55	202.494	200.17728	0.004938418
2233	126.6	202.332	194.18285	0.004942372
2234	126.65	194.129	187.16736	0.005151214
2235	126.7	178.977	179.96015	0.00558731
2236	126.75	173.192	173.16928	0.005773939
2237	126.8	168.08	167.16701	0.005949548
2238	126.85	161.726	162.12339	0.006183298
2239	126.9	163.564	158.05678	0.006113815
2240	126.95	160.741	154.88571	0.006221188
2241	127	157.344	152.47486	0.006355501
2242	127.05	148.664	150.67159	0.006726578
2243	127.1	152.91	149.3312	0.006539795
2244	127.15	154.864	148.33113	0.006457279
2245	127.2	155.676	147.57596	0.006423598
2246	127.25	148.392	146.99621	0.006738908
2247	127.3	147.473	146.54393	0.006780902
2248	127.35	145.744	146.18728	0.006861346
2249	127.4	150.982	145.90565	0.006623306
2250	127.45	152.163	145.68579	0.0065719
2251	127.5	155.094	145.49903	0.006447703
2252	127.55	144.284	145.3689	0.006930775
2253	127.6	145.687	145.2915	0.00686403
2254	127.65	153.07	145.25727	0.006532959
2255	127.7	152.443	145.2624	0.006559829
2256	127.75	148.197	145.30584	0.006747775
2257	127.8	146.963	145.38711	0.006804434
2258	127.85	141.973	145.5062	0.007043593
2259	127.9	148.282	145.66359	0.006743907
2260	127.95	144.253	145.86018	0.006932265
2261	128	147.738	146.09736	0.006768739
2262	128.05	147.207	146.37693	0.006793155
2263	128.1	149.987	146.70123	0.006667244
2264	128.15	148.504	147.07309	0.006733825
2265	128.2	152.093	147.49596	0.006574925
2266	128.25	146.113	147.97391	0.006844018
2267	128.3	156.679	148.51179	0.006382476
2268	128.35	152.05	149.11527	0.006576784
2269	128.4	151.268	149.79104	0.006610784
2270	128.45	150.174	150.54693	0.006658942
2271	128.5	148.995	151.39217	0.006711635
2272	128.55	151.492	152.33757	0.006601009
2273	128.6	151.598	153.39596	0.006596393
2274	128.65	150.317	154.58252	0.006652607
2275	128.7	160.87	155.91537	0.006216199
2276	128.75	157.228	157.41641	0.00636019
2277	128.8	159.527	159.11242	0.006268531
2278	128.85	162.983	161.03701	0.006135609
2279	128.9	159.486	163.23375	0.006270143
2280	128.95	172.256	165.76158	0.005805313
2281	129	172.25	168.70402	0.005805515
2282	129.05	173.025	172.1844	0.005779512
2283	129.1	180.791	176.38984	0.005531249
2284	129.15	182.296	181.60662	0.005485584
2285	129.2	195.749	188.2681	0.005108583
2286	129.25	204.834	197.01264	0.004882002
2287	129.3	220.056	208.74292	0.004544298
2288	129.35	244.524	224.66945	0.004089578
2289	129.4	268.11	246.31319	0.003729812
2290	129.45	282.009	275.43786	0.003545986
2291	129.5	319.38	313.88643	0.003131066
2292	129.55	362.366	363.31054	0.002759641
2293	129.6	419.206	424.8009	0.002385462
2294	129.65	492.268	498.43938	0.002031414
2295	129.7	573.123	582.78092	0.001744826
2296	129.75	655.735	674.24334	0.001525006
2297	129.8	738.943	766.42537	0.001353284
2298	129.85	819.619	849.70549	0.001220079
2299	129.9	889.726	912.14142	0.001123942
2300	129.95	922.466	942.72164	0.001084051
2301	130	915.376	935.91949	0.001092447
2302	130.05	872.65	894.05035	0.001145935
2303	130.1	792.455	825.5409	0.001261901
2304	130.15	703.556	741.16693	0.001421351
2305	130.2	607.047	651.03382	0.001647319
2306	130.25	542.552	563.10353	0.001843141
2307	130.3	470.311	482.80524	0.002126253
2308	130.35	409.618	413.206	0.002441299
2309	130.4	359.225	355.44156	0.002783771
2310	130.45	327.706	309.23676	0.003051516
2311	130.5	282.391	273.41373	0.003541189
2312	130.55	266.544	246.33217	0.003751726
2313	130.6	244.525	226.23225	0.004089561
2314	130.65	235.367	211.46895	0.004248684
2315	130.7	214.507	200.6431	0.004661853
2316	130.75	210.818	192.64822	0.004743428
2317	130.8	202.476	186.65953	0.004938857
2318	130.85	198.738	182.09131	0.00503175
2319	130.9	185.34	178.54319	0.005395489
2320	130.95	188.007	175.74896	0.005318951
2321	131	179.116	173.53449	0.005582974
2322	131.05	177.263	171.78639	0.005641335
2323	131.1	180.948	170.4306	0.00552645
2324	131.15	175.185	169.41856	0.005708251
2325	131.2	173.49	168.71884	0.005764021
2326	131.25	172.353	168.30912	0.005802046
2327	131.3	176.129	168.18265	0.005677657
2328	131.35	172.964	168.34551	0.00578155
2329	131.4	177.188	168.80701	0.005643723
2330	131.45	167.641	169.59283	0.005965128
2331	131.5	179.05	170.74969	0.005585032
2332	131.55	184.246	172.3546	0.005427526
2333	131.6	191.021	174.5291	0.005235027
2334	131.65	193.029	177.45871	0.005180569
2335	131.7	200.485	181.41683	0.004987904
2336	131.75	198.408	186.79008	0.005040119
2337	131.8	209.344	194.09959	0.004776827
2338	131.85	222.197	204.00916	0.004500511
2339	131.9	234.634	217.30958	0.004261957
2340	131.95	246.428	234.86842	0.00405798
2341	132	264.016	257.53825	0.003787649
2342	132.05	286.537	286.02227	0.003489951
2343	132.1	324.648	320.70556	0.003080259
2344	132.15	369.648	361.45832	0.002705276
2345	132.2	392.198	407.41201	0.002549733
2346	132.25	443.763	456.69864	0.002253455
2347	132.3	502.676	506.17392	0.001989353
2348	132.35	543.872	551.2931	0.001838668
2349	132.4	586.753	586.55883	0.001704295
2350	132.45	622.544	606.93129	0.001606312
2351	132.5	630.896	609.778	0.001585047
2352	132.55	631.901	596.00308	0.001582526
2353	132.6	583.229	569.50203	0.001714592
2354	132.65	546.176	535.61749	0.001830912
2355	132.7	499.695	499.70288	0.002001221
2356	132.75	458.369	466.25269	0.002181648
2357	132.8	429.097	438.56108	0.002330475
2358	132.85	415.209	418.60633	0.002408426
2359	132.9	392.99	407.0746	0.002544594
2360	132.95	393.336	403.43679	0.002542356
2361	133	423.206	406.02937	0.002362915
2362	133.05	431.516	412.15433	0.002317411
2363	133.1	458.06	418.33483	0.00218312
2364	133.15	448.731	420.93543	0.002228507
2365	133.2	445.03	417.13166	0.00224704
2366	133.25	443.056	405.82581	0.002257051
2367	133.3	406.086	387.6516	0.002462533
2368	133.35	362.892	364.44088	0.002755641
2369	133.4	331.28	338.43188	0.003018595
2370	133.45	293.565	311.74632	0.003406401
2371	133.5	282.377	286.06308	0.003541365
2372	133.55	247.323	262.56221	0.004043296
2373	133.6	222.625	241.94153	0.004491859
2374	133.65	210.291	224.48704	0.004755315
2375	133.7	196.424	210.16834	0.005091028
2376	133.75	193.86	198.73846	0.005158362
2377	133.8	184.086	189.82534	0.005432244
2378	133.85	177.911	183.00748	0.005620788
2379	133.9	167.539	177.87009	0.00596876
2380	133.95	164.245	174.04135	0.006088465
2381	134	170.563	171.21082	0.005862936
2382	134.05	167.31	169.134	0.005976929
2383	134.1	164.042	167.62915	0.006096
2384	134.15	164.266	166.56275	0.006087687
2385	134.2	167.985	165.84506	0.005952912
2386	134.25	162.121	165.41747	0.006168232
2387	134.3	158.31	165.24446	0.00631672
2388	134.35	155.279	165.30816	0.006440021
2389	134.4	156.833	165.6053	0.006376209
2390	134.45	161.225	166.14665	0.006202512
2391	134.5	161.289	166.94209	0.006200051
2392	134.55	157.453	168.06367	0.006351102
2393	134.6	158.482	169.57774	0.006309865
2394	134.65	164.908	171.58467	0.006063987
2395	134.7	174.675	174.22589	0.005724918
2396	134.75	168.685	177.69	0.005928209
2397	134.8	180.563	182.21339	0.005538233
2398	134.85	182.885	188.07567	0.005467917
2399	134.9	187.709	195.58612	0.005327395
2400	134.95	194.839	205.05862	0.005132443
2401	135	209.791	216.77549	0.004766649
2402	135.05	221.269	230.94208	0.004519386
2403	135.1	231.023	247.63486	0.004328573
2404	135.15	258.175	266.74465	0.003873342
2405	135.2	290.965	287.9107	0.003436839
2406	135.25	306.146	310.46367	0.003266415
2407	135.3	334.596	333.34886	0.002988679
2408	135.35	372.165	355.15164	0.00268698
2409	135.4	391.159	374.30956	0.002556505
2410	135.45	414.359	389.6034	0.002413366
2411	135.5	421.812	400.70566	0.002370724
2412	135.55	429.673	408.49998	0.002327351
2413	135.6	426.622	414.88013	0.002343995
2414	135.65	414.018	422.23549	0.002415354
2415	135.7	418.484	432.92162	0.002389578
2416	135.75	421.896	448.86784	0.002370252
2417	135.8	432.62	471.31331	0.002311497
2418	135.85	455.341	500.61578	0.002196156
2419	135.9	475.389	536.08771	0.00210354
2420	135.95	510.702	575.83586	0.001958089
2421	136	547.059	616.63163	0.001827956
2422	136.05	581.454	653.96279	0.001719827
2423	136.1	621.933	682.53972	0.00160789
2424	136.15	645.366	697.4637	0.001549508
2425	136.2	657.479	695.88439	0.001520961
2426	136.25	642.471	677.73602	0.00155649
2427	136.3	617.44	645.49663	0.001619591
2428	136.35	581.047	603.11835	0.001721031
2429	136.4	527.615	554.91819	0.001895321
2430	136.45	472.2	504.8452	0.002117747
2431	136.5	434.787	456.12694	0.002299977
2432	136.55	390.565	411.15808	0.002560393
2433	136.6	363.4	371.52494	0.002751789
2434	136.65	336.221	338.10895	0.002974234
2435	136.7	313.262	311.23181	0.003192216
2436	136.75	278.701	290.81274	0.003588075
2437	136.8	269.787	276.52514	0.003706628
2438	136.85	272.858	267.89972	0.00366491
2439	136.9	268.688	264.42093	0.003721789
2440	136.95	263.146	265.61099	0.003800172
2441	137	264.53	271.04772	0.00378029
2442	137.05	273.693	280.36654	0.003653729
2443	137.1	289.949	293.23836	0.003448882
2444	137.15	304.135	309.32688	0.003288014
2445	137.2	316.32	328.23475	0.003161356
2446	137.25	347.384	349.46541	0.002878659
2447	137.3	364.251	372.44702	0.00274536
2448	137.35	389.142	396.64901	0.002569756
2449	137.4	408.926	421.74586	0.00244543
2450	137.45	429.547	447.70935	0.002328034
2451	137.5	456.937	474.74721	0.002188486
2452	137.55	464.848	503.10905	0.002151241
2453	137.6	480.515	532.8282	0.0020811
2454	137.65	523.671	563.43851	0.001909596
2455	137.7	557.251	593.70816	0.001794523
2456	137.75	582.712	621.45982	0.001716114
2457	137.8	610.417	643.72877	0.001638224
2458	137.85	649.177	657.32667	0.001540412
2459	137.9	676.765	659.79854	0.001477618
2460	137.95	684.686	650.31376	0.001460524
2461	138	687.002	629.94766	0.0014556
2462	138.05	639.295	601.25846	0.001564223
2463	138.1	591.328	567.54857	0.001691109
2464	138.15	548.009	532.22547	0.001824788
2465	138.2	504.57	498.41428	0.001981886
2466	138.25	447.054	468.77356	0.002236866
2467	138.3	424.623	445.42604	0.00235503
2468	138.35	401.513	429.9447	0.002490579
2469	138.4	385.755	423.36534	0.002592319
2470	138.45	389.383	426.20827	0.002568166
2471	138.5	390.319	438.4962	0.002562007
2472	138.55	409.247	459.75896	0.002443512
2473	138.6	424.15	489.0198	0.002357656
2474	138.65	456.574	524.74562	0.002190225
2475	138.7	490.314	564.76146	0.002039509
2476	138.75	537.453	606.19616	0.001860628
2477	138.8	581.823	645.50842	0.001718736
2478	138.85	629.026	678.80909	0.001589759
2479	138.9	680.095	702.58833	0.001470383
2480	138.95	699.656	714.66539	0.001429274
2481	139	694.17	714.8572	0.001440569
2482	139.05	695.792	704.95139	0.001437211
2483	139.1	676.223	688.06267	0.001478802
2484	139.15	665.075	667.79054	0.00150359
2485	139.2	633.007	647.56163	0.001579761
2486	139.25	594.314	630.20713	0.001682612
2487	139.3	581.944	617.68061	0.001718378
2488	139.35	568.365	610.95806	0.001759433
2489	139.4	562.47	609.95664	0.001777873
2490	139.45	582.264	613.50789	0.001717434
2491	139.5	593.093	619.4132	0.001686076
2492	139.55	596.34	624.67862	0.001676896
2493	139.6	612.19	626.03252	0.00163348
2494	139.65	629.008	620.68585	0.001589805
2495	139.7	626.419	607.04672	0.001596376
2496	139.75	618.05	585.02119	0.001617992
2497	139.8	588.256	555.79035	0.00169994
2498	139.85	540.437	521.28984	0.001850354
2499	139.9	498.747	483.69642	0.002005025
2500	139.95	458.16	445.07577	0.002182644
2501	140	409.795	407.19176	0.002440245
2502	140.05	376.171	371.42353	0.002658365
2503	140.1	338.413	338.74673	0.002954969
2504	140.15	306.97	309.75619	0.003257647
2505	140.2	271.718	284.71704	0.003680286
2506	140.25	251.349	263.63282	0.003978532
2507	140.3	235.977	246.31978	0.004237701
2508	140.35	221.119	232.47913	0.004522452
2509	140.4	210.947	221.76158	0.004740527
2510	140.45	205.846	213.8205	0.004858001
2511	140.5	194.145	208.35233	0.005150789
2512	140.55	193.605	205.12309	0.005165156
2513	140.6	183.931	203.98155	0.005436821
2514	140.65	182.425	204.86009	0.005481705
2515	140.7	182.45	207.76446	0.005480954
2516	140.75	187.894	212.75416	0.00532215
2517	140.8	185.707	219.91507	0.005384827
2518	140.85	192.028	229.32649	0.005207574
2519	140.9	205.404	241.02419	0.004868454
2520	140.95	211.619	254.93302	0.004725474
2521	141	226.534	270.92729	0.004414348
2522	141.05	242.48	288.66074	0.004124051
2523	141.1	274.501	307.57779	0.003642974
2524	141.15	299.842	326.86438	0.00333509
2525	141.2	332.215	345.41464	0.003010099
2526	141.25	376.474	361.85916	0.002656226
2527	141.3	401.09	374.70198	0.002493206
2528	141.35	420.679	382.58946	0.002377109
2529	141.4	438.395	384.6348	0.002281048
2530	141.45	432.406	380.64148	0.002312641
2531	141.5	410.575	371.10782	0.002435609
2532	141.55	384.188	357.03676	0.002602892
2533	141.6	350.377	339.67603	0.002854069
2534	141.65	311.513	320.29907	0.003210139
2535	141.7	281.713	300.06584	0.003549712
2536	141.75	265.045	279.95114	0.003772944
2537	141.8	251.151	260.71623	0.003981668
2538	141.85	224.528	242.90631	0.004453788
2539	141.9	213.751	226.86487	0.004678341
2540	141.95	202.489	212.75985	0.00493854
2541	142	184.644	200.61652	0.005415827
2542	142.05	174.382	190.3282	0.005734537
2543	142.1	175.571	181.7726	0.005695701
2544	142.15	171.086	174.75302	0.005845014
2545	142.2	156.877	169.04601	0.006374421
2546	142.25	161.513	164.43428	0.006191452
2547	142.3	159.756	160.71511	0.006259546
2548	142.35	158.652	157.70969	0.006303104
2549	142.4	153.997	155.26619	0.006493633
2550	142.45	153.171	153.2593	0.006528651
2551	142.5	160.761	151.59033	0.006220414
2552	142.55	154.722	150.18156	0.006463205
2553	142.6	149.072	148.97394	0.006708168
2554	142.65	151.552	147.92317	0.006598395
2555	142.7	149.558	146.99643	0.006686369
2556	142.75	143.952	146.16946	0.00694676
2557	142.8	149.937	145.42432	0.006669468
2558	142.85	151.235	144.74761	0.006612226
2559	142.9	142.795	144.12916	0.007003046
2560	142.95	150.316	143.56112	0.006652652
2561	143	150.091	143.03725	0.006662625
2562	143.05	148.223	142.55251	0.006746591
2563	143.1	148.262	142.1027	0.006744817
2564	143.15	145.553	141.6843	0.00687035
2565	143.2	145.882	141.29426	0.006854855
2566	143.25	143.712	140.92996	0.006958361
2567	143.3	140.491	140.58909	0.007117894
2568	143.35	145.858	140.26962	0.006855983
2569	143.4	140.196	139.96974	0.007132871
2570	143.45	146.046	139.68784	0.006847158
2571	143.5	139.716	139.42249	0.007157376
2572	143.55	148.003	139.1724	0.00675662
2573	143.6	150.765	138.93642	0.006632839
2574	143.65	146.943	138.71349	0.00680536
2575	143.7	156.46	138.50268	0.00639141
2576	143.75	150.806	138.30313	0.006631036
2577	143.8	142.773	138.11407	0.007004125
2578	143.85	150.12	137.93479	0.006661338
2579	143.9	154.262	137.76464	0.006482478
2580	143.95	151.047	137.60305	0.006620456
2581	144	151.15	137.44946	0.006615944
2582	144.05	152.842	137.3034	0.006542704
2583	144.1	150.649	137.16439	0.006637946
2584	144.15	151.464	137.03204	0.006602229
2585	144.2	158.005	136.90468	0.006328914
2586	144.25	148.98	136.77719	0.00671231
2587	144.3	145.772	136.66057	0.006860028
2588	144.35	144.643	136.55038	0.006913573
2589	144.4	148.315	136.44578	0.006742406
2590	144.45	147.405	136.34623	0.00678403
2591	144.5	151.013	136.25121	0.006621946
2592	144.55	151.439	136.16045	0.006603319
2593	144.6	154.84	136.07375	0.00645828
2594	144.65	161.232	135.99091	0.006202243
2595	144.7	151.844	135.91176	0.006585706
2596	144.75	159.69	135.83612	0.006262133
2597	144.8	159.436	135.76382	0.006272109
2598	144.85	163.595	135.69473	0.006112656
2599	144.9	160.484	135.62869	0.006231151
2600	144.95	158.926	135.56558	0.006292237
2601	145	155.922	135.50528	0.006413463



_refine_ls_goodness_of_fit_all
1.90
_journal_year
2009
_journal_page_last
299
_symmetry_space_group_name_H-M
'R 3 c'
_pd_char_colour
white
_cell_angle_beta
90
_pd_spec_mount_mode
reflection
_cell_angle_alpha
90
_diffrn_radiation_monochromator
'Ge [115]'
_chemical_formula_sum
'K0.05 Na0.95 Nb1 O3'
_chemical_formula_structural
'K Na (Nb O3)'
_journal_page_first
291
_chemical_formula_weight
164.71
_pd_proc_info_excluded_regions
'145-160\% 2\q'
_pd_meas_2theta_range_max
160
_diffrn_measurement_device_type
D2B
_symmetry_cell_setting
trigonal
_diffrn_ambient_temperature
150
_journal_coeditor_code
WF5039
_pd_meas_2theta_range_inc
0.05
_pd_spec_size_axial
20
_journal_name_full
'Acta Crystallographica, Section B'
_journal_volume
65
_cell_volume
363.994(8)
_journal_issue
3
_pd_spec_mounting
'Vanadium can packed with powder'
_pd_spec_shape
cylinder
_pd_proc_ls_prof_R_factor
0.053
_diffrn_radiation_wavelength
1.60
_pd_spec_size_equat
50
_pd_block_diffractogram_id
KNN05at150K
_pd_spec_size_thick
20
_pd_meas_scan_method
step
_diffrn_radiation_type
Neutron
_journal_paper_category
FA
_journal_date_accepted
2009-03-25
_pd_proc_ls_prof_wR_factor
0.070
_cell_angle_gamma
120
_refine_ls_number_parameters
24
_computing_structure_refinement
'TOPAS Academic'
_cell_formula_units_Z
6
_cell_length_a
5.52229(5)
_cell_length_b
5.52229(5)
_pd_meas_number_of_points
2601
_cell_length_c
13.78243(16)
_chemical_name_systematic
'Sodium Potassium Niobate'
_pd_proc_ls_prof_wR_expected
0.019
_journal_date_recd_electronic
2008-12-13
_pd_meas_2theta_range_min
0.10
loop_
_symmetry_equiv_pos_as_xyz

;-x+y, -x, z
;

;-x+y, y, z+1/2
;

;-x+y+1/3, -x-1/3, z-1/3
;

;-x+y+1/3, y-1/3, z+1/6
;

;-x+y-1/3, -x+1/3, z+1/3
;

;-x+y-1/3, y+1/3, z-1/6
;

;-y, -x, z+1/2
;

;-y, x-y, z
;

;-y+1/3, -x-1/3, z+1/6
;

;-y+1/3, x-y-1/3, z-1/3
;

;-y-1/3, -x+1/3, z-1/6
;

;-y-1/3, x-y+1/3, z+1/3
;

;x, y, z
;

;x, x-y, z+1/2
;

;x+1/3, y-1/3, z-1/3
;

;x+1/3, x-y-1/3, z+1/6
;

;x-1/3, y+1/3, z+1/3
;

;x-1/3, x-y+1/3, z-1/6
;

loop_
_atom_type_symbol
Na1+
K1+
Nb5+
O2-

loop_
_atom_site_type_symbol
_atom_site_label
_atom_site_fract_x
_atom_site_fract_y
_atom_site_fract_z
_atom_site_occupancy
Na+1 Na1 0 0 0.2714(2) 0.95
K+1 K1 0 0 0.2714(2) 0.05
Nb+5 Nb1 0 0 0.01561(11) 1
O-2 O1 0.1067(2) 0.3365(4) 0.08333 1

