data_KNN05at50K

_pd_block_id     KNN05at50K
_pd_proc_2theta_range_min  15 
_pd_proc_2theta_range_max 145
_pd_proc_ls_background_function   'Chebychev with six coefficients' 

loop_
      
_pd_data_point_id                           
      
_pd_meas_2theta_corrected     
_pd_meas_intensity_total                     
      
_pd_calc_intensity_total                     
      
_pd_proc_ls_weight     
1	15	122.178	119.25432	0.00818478
2	15.05	121.744	119.23242	0.008213957
3	15.1	119.63	119.21049	0.008359107
4	15.15	118.254	119.18853	0.008456374
5	15.2	122.263	119.16655	0.008179089
6	15.25	122.691	119.14455	0.008150557
7	15.3	115.729	119.12252	0.008640877
8	15.35	113.63	119.10048	0.008800493
9	15.4	115.81	119.07842	0.008634833
10	15.45	118.032	119.05636	0.008472279
11	15.5	123.085	119.03428	0.008124467
12	15.55	116.933	119.01219	0.008551906
13	15.6	116.187	118.9901	0.008606815
14	15.65	120.891	118.968	0.008271914
15	15.7	120.111	118.94591	0.008325632
16	15.75	116.027	118.92381	0.008618684
17	15.8	118.593	118.90173	0.008432201
18	15.85	122.63	118.87965	0.008154611
19	15.9	121.162	118.85759	0.008253413
20	15.95	117.787	118.83553	0.008489901
21	16	116.963	118.8135	0.008549712
22	16.05	116.451	118.79149	0.008587303
23	16.1	120.539	118.76951	0.00829607
24	16.15	115.822	118.74755	0.008633938
25	16.2	120.126	118.72562	0.008324593
26	16.25	119.011	118.70373	0.008402585
27	16.3	119.871	118.68188	0.008342301
28	16.35	119.735	118.66007	0.008351777
29	16.4	118.441	118.63831	0.008443022
30	16.45	118.182	118.6166	0.008461525
31	16.5	120.606	118.59494	0.008291461
32	16.55	113.757	118.57335	0.008790668
33	16.6	116.168	118.55182	0.008608223
34	16.65	120.368	118.53036	0.008307856
35	16.7	125.015	118.50897	0.00799904
36	16.75	120.675	118.48766	0.008286721
37	16.8	113.365	118.46644	0.008821065
38	16.85	119.242	118.4453	0.008386307
39	16.9	118.518	118.42426	0.008437537
40	16.95	120.622	118.40332	0.008290362
41	17	116.472	118.38249	0.008585755
42	17.05	116.345	118.36177	0.008595127
43	17.1	120.521	118.34117	0.008297309
44	17.15	121.88	118.3207	0.008204792
45	17.2	119.004	118.30035	0.008403079
46	17.25	119.403	118.28015	0.008374999
47	17.3	117.516	118.2601	0.00850948
48	17.35	113.064	118.2402	0.008844548
49	17.4	121.751	118.22046	0.008213485
50	17.45	116.974	118.2009	0.008548908
51	17.5	114.761	118.18151	0.008713762
52	17.55	114.68	118.16231	0.008719916
53	17.6	117.114	118.14331	0.008538689
54	17.65	112.435	118.12452	0.008894028
55	17.7	118.87	118.10599	0.008412552
56	17.75	121.385	118.08783	0.00823825
57	17.8	122.675	118.0701	0.00815162
58	17.85	119.726	118.05285	0.008352405
59	17.9	116.032	118.03613	0.008618312
60	17.95	114.592	118.02006	0.008726613
61	18	114.388	118.00478	0.008742176
62	18.05	117.328	117.99053	0.008523115
63	18.1	115.407	117.97788	0.008664986
64	18.15	114.759	117.96896	0.008713914
65	18.2	116.749	117.96373	0.008565384
66	18.25	117.371	117.94862	0.008519992
67	18.3	120.292	117.93397	0.008313105
68	18.35	112.283	117.91981	0.008906068
69	18.4	113.833	117.90617	0.008784799
70	18.45	113.009	117.89312	0.008848853
71	18.5	117.313	117.88072	0.008524204
72	18.55	115.593	117.86908	0.008651043
73	18.6	115.876	117.85845	0.008629915
74	18.65	118.616	117.84965	0.008430566
75	18.7	111.856	117.84274	0.008940066
76	18.75	114.04	117.83239	0.008768853
77	18.8	116.28	117.82265	0.008599931
78	18.85	116.531	117.81355	0.008581408
79	18.9	122.582	117.80512	0.008157805
80	18.95	117.008	117.7974	0.008546424
81	19	118.05	117.79042	0.008470987
82	19.05	116.211	117.78422	0.008605037
83	19.1	122.484	117.77883	0.008164332
84	19.15	122.518	117.7743	0.008162066
85	19.2	120.081	117.77068	0.008327712
86	19.25	120.222	117.768	0.008317945
87	19.3	118.029	117.76632	0.008472494
88	19.35	116.443	117.76569	0.008587893
89	19.4	119.48	117.76618	0.008369602
90	19.45	123.044	117.76783	0.008127174
91	19.5	120.141	117.77071	0.008323553
92	19.55	120.359	117.77489	0.008308477
93	19.6	120.132	117.78044	0.008324177
94	19.65	117.702	117.78744	0.008496032
95	19.7	117.458	117.79597	0.008513681
96	19.75	118.977	117.80612	0.008404986
97	19.8	117.683	117.81798	0.008497404
98	19.85	115.422	117.83165	0.00866386
99	19.9	115.848	117.84725	0.008632001
100	19.95	115.474	117.86488	0.008659958
101	20	117.1	117.88468	0.00853971
102	20.05	117.856	117.90678	0.008484931
103	20.1	117.044	117.93132	0.008543795
104	20.15	116.627	117.95846	0.008574344
105	20.2	118.685	117.98836	0.008425665
106	20.25	121.615	118.02122	0.00822267
107	20.3	121.737	118.05722	0.008214429
108	20.35	119.904	118.09658	0.008340005
109	20.4	116.096	118.13954	0.008613561
110	20.45	113.589	118.18634	0.008803669
111	20.5	115.55	118.23727	0.008654262
112	20.55	114.979	118.29261	0.00869724
113	20.6	117.497	118.3527	0.008510856
114	20.65	112.514	118.41789	0.008887783
115	20.7	117.415	118.48858	0.008516799
116	20.75	120.581	118.5652	0.008293181
117	20.8	119.285	118.64822	0.008383284
118	20.85	120.533	118.73815	0.008296483
119	20.9	117.122	118.83558	0.008538106
120	20.95	115.571	118.94113	0.00865269
121	21	112.744	119.05552	0.008869652
122	21.05	118.126	119.17952	0.008465537
123	21.1	118.004	119.31401	0.008474289
124	21.15	119.253	119.45995	0.008385533
125	21.2	116.447	119.61844	0.008587598
126	21.25	118.905	119.79069	0.008410075
127	21.3	116.768	119.97808	0.00856399
128	21.35	116.463	120.18215	0.008586418
129	21.4	120.383	120.40465	0.008306821
130	21.45	122.1	120.64759	0.008190008
131	21.5	118.753	120.91323	0.00842084
132	21.55	115.26	121.20416	0.008676037
133	21.6	117.55	121.52337	0.008507018
134	21.65	121.575	121.87431	0.008225375
135	21.7	121.76	122.26095	0.008212878
136	21.75	121.386	122.68796	0.008238182
137	21.8	121.498	123.16075	0.008230588
138	21.85	122.239	123.68574	0.008180695
139	21.9	124.097	124.2705	0.008058213
140	21.95	129.965	124.92407	0.007694379
141	22	128.692	125.65731	0.007770491
142	22.05	125.741	126.48334	0.007952855
143	22.1	124.947	127.41826	0.008003393
144	22.15	134.667	128.48203	0.007425724
145	22.2	146.089	129.70011	0.006845142
146	22.25	146.335	131.10645	0.006833635
147	22.3	143.871	132.74979	0.006950671
148	22.35	155.391	134.70661	0.006435379
149	22.4	157.591	137.1058	0.00634554
150	22.45	155	140.17038	0.006451613
151	22.5	166.095	144.27642	0.006020651
152	22.55	174.926	150.01919	0.005716703
153	22.6	177.832	158.26215	0.005623285
154	22.65	187.271	170.1354	0.005339855
155	22.7	198.821	186.95205	0.00502965
156	22.75	216.054	210.0287	0.004628473
157	22.8	227.241	240.46949	0.004400614
158	22.85	250.668	279.09706	0.00398934
159	22.9	282.717	326.66279	0.003537106
160	22.95	316.074	384.24861	0.003163816
161	23	364.657	453.73365	0.002742303
162	23.05	419.537	538.23706	0.00238358
163	23.1	503.639	642.31853	0.001985549
164	23.15	590.529	771.42733	0.001693397
165	23.2	738.035	929.85736	0.001354949
166	23.25	931.183	1116.74152	0.001073903
167	23.3	1128.444	1320.78791	0.000886176
168	23.35	1350.831	1516.10986	0.000740285
169	23.4	1553.788	1662.27144	0.000643588
170	23.45	1665.983	1711.5125	0.000600246
171	23.5	1631.792	1628.11328	0.000612823
172	23.55	1478.336	1418.98634	0.000676436
173	23.6	1221.682	1140.43591	0.000818544
174	23.65	964.703	859.76976	0.001036588
175	23.7	752.447	621.81729	0.001328997
176	23.75	607.074	444.37393	0.001647246
177	23.8	487.433	325.39678	0.002051564
178	23.85	399.154	252.21588	0.002505299
179	23.9	329.35	209.69832	0.003036284
180	23.95	279.994	185.29577	0.003571505
181	24	226.148	170.66053	0.004421883
182	24.05	194.369	161.07221	0.005144853
183	24.1	170.515	154.16082	0.005864587
184	24.15	149.929	148.81094	0.006669824
185	24.2	138.678	144.49014	0.007210949
186	24.25	129.746	140.91691	0.007707367
187	24.3	127.095	137.9186	0.00786813
188	24.35	120.675	135.37584	0.008286721
189	24.4	121.184	133.20046	0.008251914
190	24.45	119.833	131.32533	0.008344947
191	24.5	118.135	129.69877	0.008464892
192	24.55	121.063	128.28206	0.008260162
193	24.6	117.403	127.06363	0.00851767
194	24.65	116.673	125.94979	0.008570963
195	24.7	117.024	124.95756	0.008545256
196	24.75	120.414	124.07006	0.008304682
197	24.8	117.887	123.27262	0.0084827
198	24.85	118.735	122.55305	0.008422116
199	24.9	113.979	121.90115	0.008773546
200	24.95	117.652	121.30833	0.008499643
201	25	114.768	120.76734	0.00871323
202	25.05	118.356	120.272	0.008449086
203	25.1	114.167	119.81701	0.008759099
204	25.15	113.954	119.39785	0.008775471
205	25.2	116.091	119.01058	0.008613932
206	25.25	122.164	118.65182	0.008185718
207	25.3	113.59	118.3186	0.008803592
208	25.35	113.929	118.00835	0.008777396
209	25.4	116.009	117.71881	0.008620021
210	25.45	114.39	117.44798	0.008742023
211	25.5	111.13	117.19424	0.00899847
212	25.55	110.819	116.95621	0.009023723
213	25.6	117.071	116.73262	0.008541825
214	25.65	114.872	116.52238	0.008705342
215	25.7	120.452	116.32462	0.008302062
216	25.75	116.863	116.13885	0.008557028
217	25.8	114.082	115.96556	0.008765625
218	25.85	111.686	115.8125	0.008953674
219	25.9	111.914	115.65077	0.008935433
220	25.95	118.441	115.49675	0.008443022
221	26	123.92	115.34986	0.008069722
222	26.05	116.205	115.20957	0.008605482
223	26.1	109.767	115.0754	0.009110206
224	26.15	115.055	114.94692	0.008691495
225	26.2	120.694	114.82374	0.008285416
226	26.25	113.789	114.70549	0.008788196
227	26.3	114.743	114.59195	0.008715129
228	26.35	117.317	114.48319	0.008523914
229	26.4	113.633	114.37908	0.00880026
230	26.45	117.39	114.27959	0.008518613
231	26.5	116.436	114.18481	0.008588409
232	26.55	118.958	114.09519	0.008406328
233	26.6	116.478	114.01225	0.008585312
234	26.65	119.871	113.94729	0.008342301
235	26.7	115.18	113.8692	0.008682063
236	26.75	114.237	113.78633	0.008753731
237	26.8	111.404	113.70592	0.008976338
238	26.85	114.092	113.62786	0.008764856
239	26.9	108.123	113.55202	0.009248726
240	26.95	106.698	113.47828	0.009372247
241	27	115.389	113.40654	0.008666337
242	27.05	113.974	113.3367	0.008773931
243	27.1	110.76	113.26866	0.00902853
244	27.15	113.955	113.20235	0.008775394
245	27.2	115.141	113.13768	0.008685004
246	27.25	120.229	113.07457	0.008317461
247	27.3	118.148	113.01296	0.00846396
248	27.35	117.153	112.95279	0.008535846
249	27.4	126.107	112.89398	0.007929774
250	27.45	115.575	112.8365	0.00865239
251	27.5	111.543	112.78028	0.008965152
252	27.55	118.74	112.72528	0.008421762
253	27.6	119.62	112.67146	0.008359806
254	27.65	112.801	112.61876	0.00886517
255	27.7	117.882	112.56715	0.008483059
256	27.75	115.964	112.5166	0.008623366
257	27.8	112.909	112.46707	0.00885669
258	27.85	111.255	112.41853	0.00898836
259	27.9	111.469	112.37095	0.008971104
260	27.95	109.636	112.3243	0.009121092
261	28	111.15	112.27857	0.008996851
262	28.05	117.095	112.23372	0.008540074
263	28.1	115.116	112.18973	0.00868689
264	28.15	116.505	112.1466	0.008583323
265	28.2	115.211	112.10429	0.008679727
266	28.25	115.965	112.06279	0.008623292
267	28.3	114.019	112.0221	0.008770468
268	28.35	110.855	111.98219	0.009020793
269	28.4	111.012	111.94306	0.009008035
270	28.45	112.698	111.9047	0.008873272
271	28.5	114.741	111.8671	0.008715281
272	28.55	115.756	111.83025	0.008638861
273	28.6	113.302	111.79414	0.00882597
274	28.65	110.011	111.75879	0.00909
275	28.7	111.922	111.72417	0.008934794
276	28.75	118.499	111.6903	0.00843889
277	28.8	111.86	111.65716	0.008939746
278	28.85	113.711	111.62478	0.008794224
279	28.9	115.872	111.59313	0.008630213
280	28.95	112.453	111.56225	0.008892604
281	29	116.18	111.53212	0.008607333
282	29.05	119.613	111.50275	0.008360295
283	29.1	115.442	111.47417	0.008662359
284	29.15	111.599	111.44637	0.008960654
285	29.2	111.583	111.41937	0.008961939
286	29.25	115.794	111.39319	0.008636026
287	29.3	114.933	111.36785	0.008700721
288	29.35	118.114	111.34335	0.008466397
289	29.4	119.83	111.31973	0.008345156
290	29.45	120.139	111.297	0.008323692
291	29.5	112.341	111.27519	0.00890147
292	29.55	112.244	111.25433	0.008909162
293	29.6	108.17	111.23445	0.009244707
294	29.65	113.09	111.21559	0.008842515
295	29.7	112.286	111.19777	0.00890583
296	29.75	114.089	111.18104	0.008765087
297	29.8	112.158	111.16544	0.008915994
298	29.85	111.908	111.15102	0.008935912
299	29.9	116.122	111.13783	0.008611633
300	29.95	115.33	111.12592	0.008670771
301	30	115.249	111.11536	0.008676865
302	30.05	114.85	111.10621	0.008707009
303	30.1	115.426	111.09855	0.008663559
304	30.15	111.214	111.09244	0.008991674
305	30.2	115.54	111.08799	0.008655011
306	30.25	114.174	111.08526	0.008758561
307	30.3	107.023	111.08438	0.009343786
308	30.35	114.235	111.08545	0.008753885
309	30.4	119.774	111.08858	0.008349057
310	30.45	113.463	111.09391	0.008813446
311	30.5	114.177	111.10158	0.008758331
312	30.55	114.407	111.11176	0.008740724
313	30.6	116.858	111.1246	0.008557394
314	30.65	115.348	111.14031	0.008669418
315	30.7	111.885	111.15909	0.008937749
316	30.75	117.929	111.18118	0.008479678
317	30.8	115.653	111.20682	0.008646555
318	30.85	117.686	111.2363	0.008497187
319	30.9	117.408	111.26994	0.008517307
320	30.95	119.298	111.30807	0.00838237
321	31	113.682	111.3511	0.008796467
322	31.05	112.484	111.39945	0.008890153
323	31.1	119.323	111.45361	0.008380614
324	31.15	115.011	111.51412	0.00869482
325	31.2	111.177	111.5816	0.008994666
326	31.25	111.593	111.65674	0.008961136
327	31.3	110.549	111.74031	0.009045763
328	31.35	111.237	111.83322	0.008989815
329	31.4	108.387	111.93648	0.009226199
330	31.45	112.998	112.05124	0.008849714
331	31.5	112.477	112.17885	0.008890707
332	31.55	111.071	112.32082	0.00900325
333	31.6	110.192	112.47896	0.009075069
334	31.65	115.153	112.65532	0.008684099
335	31.7	112.891	112.85233	0.008858102
336	31.75	110.533	113.07282	0.009047072
337	31.8	114.397	113.32018	0.008741488
338	31.85	113.628	113.59838	0.008800648
339	31.9	113.528	113.91223	0.0088084
340	31.95	114.966	114.2675	0.008698224
341	32	114.464	114.67118	0.008736371
342	32.05	115.63	115.13189	0.008648275
343	32.1	117.652	115.66026	0.008499643
344	32.15	118.528	116.26963	0.008436825
345	32.2	122.903	116.97707	0.008136498
346	32.25	116.849	117.80522	0.008558054
347	32.3	119.206	118.78593	0.008388839
348	32.35	121.896	119.96803	0.008203715
349	32.4	122.521	121.43299	0.008161866
350	32.45	125.565	123.32377	0.007964003
351	32.5	131.478	125.89096	0.007605835
352	32.55	137.319	129.55484	0.007282313
353	32.6	137.324	134.97249	0.007282048
354	32.65	142.67	143.09208	0.007009182
355	32.7	151.008	155.17622	0.006622166
356	32.75	164.425	172.78357	0.0060818
357	32.8	184.639	197.72089	0.005415974
358	32.85	208.27	232.02063	0.00480146
359	32.9	238.444	277.89114	0.004193857
360	32.95	289.795	337.26955	0.003450715
361	33	348.243	410.55064	0.002871558
362	33.05	441.23	494.54285	0.002266392
363	33.1	528.673	580.46243	0.001891528
364	33.15	612.699	653.29822	0.001632123
365	33.2	668.392	693.91821	0.001496128
366	33.25	679.77	686.27953	0.001471086
367	33.3	625.927	630.70603	0.00159763
368	33.35	540.769	548.8442	0.001849218
369	33.4	450.116	468.75676	0.00222165
370	33.45	399.642	408.97518	0.00250224
371	33.5	384.674	375.50334	0.002599604
372	33.55	378.711	364.05163	0.002640536
373	33.6	378.274	363.60861	0.002643586
374	33.65	375.994	360.63155	0.002659617
375	33.7	355.037	344.00582	0.002816608
376	33.75	317.061	310.92264	0.003153967
377	33.8	270.06	268.32084	0.003702881
378	33.85	222.581	225.9622	0.004492746
379	33.9	183.822	190.38862	0.005440045
380	33.95	161.417	164.04567	0.006195134
381	34	149.946	146.41667	0.006669068
382	34.05	133.074	135.47131	0.007514616
383	34.1	124.027	128.91627	0.008062761
384	34.15	120.866	124.92293	0.008273625
385	34.2	117.636	122.31684	0.008500799
386	34.25	119.674	120.45306	0.008356034
387	34.3	114.838	119.01246	0.008707919
388	34.35	107.186	117.84233	0.009329577
389	34.4	109.091	116.86511	0.009166659
390	34.45	112.133	116.03574	0.008917981
391	34.5	110.795	115.32412	0.009025678
392	34.55	114.997	114.70828	0.008695879
393	34.6	115.744	114.17142	0.008639757
394	34.65	109.238	113.70038	0.009154324
395	34.7	110.956	113.28473	0.009012582
396	34.75	109.263	112.91608	0.009152229
397	34.8	111.972	112.58763	0.008930804
398	34.85	119.427	112.29381	0.008373316
399	34.9	115.06	112.03003	0.008691118
400	34.95	111.789	111.79248	0.008945424
401	35	112.288	111.57796	0.008905671
402	35.05	115.998	111.38378	0.008620838
403	35.1	110.318	111.20768	0.009064704
404	35.15	109.282	111.04771	0.009150638
405	35.2	113.353	110.90223	0.008821999
406	35.25	115.482	110.76981	0.008659358
407	35.3	114.117	110.64924	0.008762936
408	35.35	111.114	110.53947	0.008999766
409	35.4	110.416	110.43958	0.009056658
410	35.45	111.874	110.34878	0.008938627
411	35.5	114.043	110.26639	0.008768622
412	35.55	109.455	110.19182	0.009136175
413	35.6	112.303	110.12454	0.008904482
414	35.65	116.172	110.0641	0.008607926
415	35.7	112.948	110.01012	0.008853632
416	35.75	108.938	109.96227	0.009179533
417	35.8	119.489	109.92026	0.008368971
418	35.85	110.63	109.88384	0.009039139
419	35.9	106.462	109.8528	0.009393023
420	35.95	117.095	109.82698	0.008540074
421	36	118.747	109.80625	0.008421265
422	36.05	111.043	109.79049	0.00900552
423	36.1	108.11	109.77962	0.009249838
424	36.15	105.843	109.77359	0.009447956
425	36.2	109.909	109.77238	0.009098436
426	36.25	109.3	109.77598	0.009149131
427	36.3	109.047	109.78441	0.009170358
428	36.35	108.893	109.79773	0.009183327
429	36.4	108.361	109.81599	0.009228412
430	36.45	110.832	109.8393	0.009022665
431	36.5	106.651	109.86778	0.009376377
432	36.55	105.739	109.90157	0.009457249
433	36.6	112.053	109.94084	0.008924348
434	36.65	111.263	109.98578	0.008987714
435	36.7	109.555	110.03664	0.009127835
436	36.75	112.419	110.09368	0.008895294
437	36.8	112.835	110.15718	0.008862498
438	36.85	112.601	110.22748	0.008880916
439	36.9	109.308	110.30497	0.009148461
440	36.95	111.607	110.39005	0.008960011
441	37	108.869	110.4832	0.009185351
442	37.05	115.983	110.58493	0.008621953
443	37.1	114.899	110.69585	0.008703296
444	37.15	113.252	110.81659	0.008829866
445	37.2	117.317	110.94789	0.008523914
446	37.25	111.716	111.09056	0.008951269
447	37.3	113.81	111.24552	0.008786574
448	37.35	112.362	111.4138	0.008899806
449	37.4	117.896	111.59654	0.008482052
450	37.45	117.423	111.79503	0.008516219
451	37.5	115.515	112.01075	0.008656884
452	37.55	118.856	112.24534	0.008413542
453	37.6	113.844	112.50068	0.00878395
454	37.65	111.467	112.77891	0.008971265
455	37.7	119.412	113.08244	0.008374368
456	37.75	117.242	113.41408	0.008529367
457	37.8	118.619	113.77702	0.008430353
458	37.85	112.384	114.17497	0.008898064
459	37.9	113.223	114.6122	0.008832128
460	37.95	119.204	115.0937	0.00838898
461	38	118.867	115.6253	0.008412764
462	38.05	121.999	116.21386	0.008196788
463	38.1	120.731	116.86799	0.008282877
464	38.15	120.294	117.59783	0.008312967
465	38.2	124.021	118.41543	0.008063151
466	38.25	119.482	119.33636	0.008369462
467	38.3	125.157	120.39057	0.007989965
468	38.35	128.68	121.55971	0.007771215
469	38.4	129.86	122.89164	0.007700601
470	38.45	127.947	124.41842	0.007815736
471	38.5	127.444	126.18021	0.007846584
472	38.55	124.503	128.22856	0.008031935
473	38.6	129.819	130.63138	0.007703033
474	38.65	129.761	133.48246	0.007706476
475	38.7	135.358	136.92155	0.007387816
476	38.75	134.465	141.17745	0.007436879
477	38.8	140.453	146.65535	0.007119819
478	38.85	150.445	154.09532	0.006646947
479	38.9	167.598	164.81454	0.005966658
480	38.95	188.883	181.14534	0.005294283
481	39	211.252	206.6761	0.004733683
482	39.05	243.669	246.76491	0.004103928
483	39.1	292.971	308.69008	0.003413307
484	39.15	376.091	401.14735	0.002658931
485	39.2	495.323	532.7483	0.002018885
486	39.25	652.266	708.86078	0.001533117
487	39.3	866.533	926.57543	0.001154024
488	39.35	1105.551	1168.58042	0.000904526
489	39.4	1340.882	1398.75114	0.000745778
490	39.45	1528.291	1563.41935	0.000654326
491	39.5	1576.258	1603.72223	0.000634414
492	39.55	1477.34	1488.45922	0.000676892
493	39.6	1212.295	1250.76559	0.000824882
494	39.65	926.248	968.47353	0.001079624
495	39.7	677.092	708.46455	0.001476904
496	39.75	502.953	504.82463	0.001988257
497	39.8	380.593	364.19714	0.002627479
498	39.85	299.205	276.76387	0.00334219
499	39.9	238.414	226.63394	0.004194385
500	39.95	202.596	199.23506	0.004935932
501	40	183.068	184.43637	0.005462451
502	40.05	173.182	176.51159	0.005774272
503	40.1	170.867	172.85144	0.005852505
504	40.15	167.469	172.75474	0.005971254
505	40.2	169.009	176.74787	0.005916845
506	40.25	181.442	186.35741	0.005511403
507	40.3	195.334	204.09999	0.005119436
508	40.35	222.815	233.42153	0.004488028
509	40.4	256.331	278.26273	0.003901206
510	40.45	309.639	341.95358	0.003229567
511	40.5	387.394	425.32549	0.002581351
512	40.55	485.494	524.18209	0.002059758
513	40.6	603.571	626.90933	0.001656806
514	40.65	701.998	713.73353	0.001424505
515	40.7	768.309	759.46916	0.00130156
516	40.75	761.263	743.32696	0.001313606
517	40.8	672.236	666.54356	0.001487573
518	40.85	559.542	557.11212	0.001787176
519	40.9	446.524	448.76203	0.002239521
520	40.95	380.955	364.00946	0.002624982
521	41	329.567	313.2559	0.003034284
522	41.05	309.627	299.25688	0.003229693
523	41.1	325.163	321.82435	0.003075381
524	41.15	363.193	380.9808	0.002753357
525	41.2	459.854	477.25123	0.002174603
526	41.25	583.869	608.9948	0.001712713
527	41.3	750.717	767.75058	0.00133206
528	41.35	932.318	933.58892	0.001072595
529	41.4	1090.835	1073.33798	0.000916729
530	41.45	1193.782	1144.82137	0.000837674
531	41.5	1176.981	1113.00393	0.000849631
532	41.55	1009.548	979.30856	0.000990542
533	41.6	770.325	789.275	0.001298153
534	41.65	566.677	597.0011	0.001764674
535	41.7	407.66	436.48379	0.002453025
536	41.75	312.717	319.70228	0.003197779
537	41.8	244.29	243.64799	0.004093495
538	41.85	199.393	198.13619	0.005015221
539	41.9	166.906	172.11899	0.005991396
540	41.95	151.473	157.093	0.006601837
541	42	132.942	147.78957	0.007522077
542	42.05	133.363	141.42172	0.007498332
543	42.1	125.003	136.66131	0.007999808
544	42.15	126.331	132.89435	0.007915713
545	42.2	121.959	129.81721	0.008199477
546	42.25	115.923	127.25661	0.008626416
547	42.3	115.628	125.0986	0.008648424
548	42.35	117.456	123.26136	0.008513826
549	42.4	112.555	121.68346	0.008884545
550	42.45	106.145	120.3177	0.009421075
551	42.5	107.737	119.1273	0.009281862
552	42.55	117.66	118.08321	0.008499065
553	42.6	114.505	117.16226	0.008733243
554	42.65	114.573	116.34577	0.00872806
555	42.7	113.304	115.61856	0.008825814
556	42.75	111.727	114.96819	0.008950388
557	42.8	114.17	114.38437	0.008758868
558	42.85	111.471	113.85853	0.008970943
559	42.9	116.674	113.38352	0.00857089
560	42.95	112.603	112.95328	0.008880758
561	43	118.063	112.5627	0.008470054
562	43.05	112.752	112.2074	0.008869022
563	43.1	113.29	111.88367	0.008826904
564	43.15	114.944	111.58827	0.008699889
565	43.2	113.578	111.31844	0.008804522
566	43.25	110.018	111.07177	0.009089422
567	43.3	111.287	110.84618	0.008985776
568	43.35	112.751	110.63984	0.008869101
569	43.4	111.199	110.45115	0.008992887
570	43.45	111.865	110.27873	0.008939347
571	43.5	110.949	110.12133	0.00901315
572	43.55	111.574	109.97789	0.008962662
573	43.6	112.216	109.84745	0.008911385
574	43.65	116.657	109.72918	0.008572139
575	43.7	117.989	109.62234	0.008475366
576	43.75	119.873	109.52628	0.008342162
577	43.8	122.548	109.44044	0.008160068
578	43.85	125.244	109.36431	0.007984414
579	43.9	125.324	109.29746	0.007979318
580	43.95	116.91	109.23951	0.008553588
581	44	112.888	109.19014	0.008858337
582	44.05	117.732	109.14906	0.008493867
583	44.1	116.191	109.11604	0.008606519
584	44.15	116.401	109.09089	0.008590991
585	44.2	117.547	109.07347	0.008507235
586	44.25	109.424	109.06415	0.009138763
587	44.3	115.894	109.06354	0.008628574
588	44.35	111.262	109.07288	0.008987795
589	44.4	115.743	109.10122	0.008639831
590	44.45	116.125	109.12141	0.00861141
591	44.5	108.195	109.14909	0.009242571
592	44.55	115.181	109.18435	0.008681987
593	44.6	110.075	109.2273	0.009084715
594	44.65	110.532	109.27807	0.009047154
595	44.7	107.24	109.33683	0.009324879
596	44.75	110.927	109.40378	0.009014938
597	44.8	119.058	109.47917	0.008399268
598	44.85	110.595	109.56327	0.009042
599	44.9	116.007	109.6564	0.008620169
600	44.95	113.694	109.75891	0.008795539
601	45	113.129	109.8712	0.008839466
602	45.05	114.767	109.99372	0.008713306
603	45.1	113.477	110.12716	0.008812358
604	45.15	109.746	110.27323	0.009111949
605	45.2	111.805	110.43375	0.008944144
606	45.25	114.644	110.61358	0.008722654
607	45.3	114.02	110.8159	0.008770391
608	45.35	115.898	111.01262	0.008628277
609	45.4	118.489	111.2248	0.008439602
610	45.45	116.224	111.45487	0.008604075
611	45.5	116.747	111.70549	0.008565531
612	45.55	115.028	111.9855	0.008693535
613	45.6	110.791	112.28681	0.009026004
614	45.65	109.929	112.59194	0.009096781
615	45.7	111.97	112.92016	0.008930964
616	45.75	115.891	113.2734	0.008628798
617	45.8	119.419	113.65377	0.008373877
618	45.85	112.656	114.06363	0.00887658
619	45.9	111.851	114.50566	0.008940465
620	45.95	118.241	114.98282	0.008457303
621	46	117.926	115.49848	0.008479894
622	46.05	120.169	116.05641	0.008321614
623	46.1	115.691	116.6609	0.008643715
624	46.15	111.729	117.31679	0.008950228
625	46.2	116.875	118.02962	0.00855615
626	46.25	120.842	118.80567	0.008275269
627	46.3	117.689	119.65217	0.008496971
628	46.35	115.441	120.5774	0.008662434
629	46.4	113.667	121.59094	0.008797628
630	46.45	119.296	122.70386	0.008382511
631	46.5	118.596	123.92908	0.008431988
632	46.55	125.867	125.28166	0.007944894
633	46.6	125.567	126.77932	0.007963876
634	46.65	138.767	128.44297	0.007206324
635	46.7	141.757	130.29745	0.007054325
636	46.75	151.852	132.37244	0.006585359
637	46.8	154.383	134.70362	0.006477397
638	46.85	162.035	137.33418	0.006171506
639	46.9	161.079	140.31683	0.006208134
640	46.95	169.523	143.71634	0.005898905
641	47	171.593	147.6131	0.005827744
642	47.05	174.524	152.10772	0.005729871
643	47.1	179.868	157.32755	0.005559633
644	47.15	182.961	163.43576	0.005465646
645	47.2	183.542	170.64499	0.005448344
646	47.25	190.257	179.24004	0.005256048
647	47.3	193.669	189.62154	0.005163449
648	47.35	195.618	202.40087	0.005112004
649	47.4	207.411	218.61431	0.004821345
650	47.45	230.915	240.18692	0.004330598
651	47.5	275.279	270.84686	0.003632678
652	47.55	338.291	317.71096	0.002956035
653	47.6	430.916	393.612	0.002320638
654	47.65	585.978	519.73513	0.001706549
655	47.7	820.309	727.06414	0.001219053
656	47.75	1168.047	1053.49985	0.00085613
657	47.8	1653.789	1532.37278	0.000604672
658	47.85	2287.923	2170.75803	0.000437078
659	47.9	3066.069	2924.09937	0.000326151
660	47.95	3820.275	3679.37958	0.000261761
661	48	4284.495	4257.94031	0.0002334
662	48.05	4345.489	4455.51629	0.000230124
663	48.1	3941.025	4155.73426	0.000253741
664	48.15	3173.844	3459.53818	0.000315075
665	48.2	2295.246	2617.34503	0.000435683
666	48.25	1586.293	1841.08871	0.000630401
667	48.3	1117.748	1235.77027	0.000894656
668	48.35	788.394	820.07261	0.001268401
669	48.4	566.72	562.23927	0.00176454
670	48.45	408.314	413.18772	0.002449096
671	48.5	318.32	328.94654	0.003141493
672	48.55	259.043	279.45552	0.003860363
673	48.6	219.497	247.67751	0.004555871
674	48.65	185.364	225.16194	0.005394791
675	48.7	166.548	207.99816	0.006004275
676	48.75	148.179	194.3371	0.006748595
677	48.8	135.162	183.20242	0.007398529
678	48.85	132.943	173.98948	0.007522021
679	48.9	121.589	166.27804	0.008224428
680	48.95	123.569	159.76125	0.008092645
681	49	121.254	154.20716	0.008247151
682	49.05	120.624	149.43843	0.008290224
683	49.1	121.177	145.31767	0.008252391
684	49.15	122.621	141.74616	0.00815521
685	49.2	123.452	138.60745	0.008100314
686	49.25	125.614	135.8429	0.007960896
687	49.3	123.125	133.39877	0.008121827
688	49.35	122.279	131.22841	0.008178019
689	49.4	117.304	129.29339	0.008524858
690	49.45	114.18	127.56184	0.008758101
691	49.5	114.611	126.00713	0.008725166
692	49.55	116.357	124.60689	0.00859424
693	49.6	114.401	123.34225	0.008741182
694	49.65	115.852	122.19717	0.008631703
695	49.7	115.742	121.15797	0.008639906
696	49.75	114.647	120.21293	0.008722426
697	49.8	114.827	119.35196	0.008708753
698	49.85	111.202	118.56635	0.008992644
699	49.9	113.698	117.84856	0.008795229
700	49.95	109.329	117.19203	0.009146704
701	50	112.243	116.59103	0.008909242
702	50.05	108.242	116.04057	0.009238558
703	50.1	107.261	115.53627	0.009323053
704	50.15	115.45	115.07429	0.008661758
705	50.2	111.608	114.65125	0.008959931
706	50.25	113.161	114.26421	0.008836967
707	50.3	110.833	113.91055	0.009022584
708	50.35	112.763	113.58799	0.008868157
709	50.4	111.38	113.29453	0.008978273
710	50.45	113.67	113.02842	0.008797396
711	50.5	110.579	112.78813	0.009043308
712	50.55	111.44	112.57235	0.008973439
713	50.6	112.334	112.37995	0.008902024
714	50.65	112.276	112.20997	0.008906623
715	50.7	110.149	112.06163	0.009078612
716	50.75	109.319	111.9343	0.009147541
717	50.8	113.354	111.82748	0.008821921
718	50.85	114.804	111.74084	0.008710498
719	50.9	113.094	111.67417	0.008842202
720	50.95	108.787	111.62741	0.009192275
721	51	107.479	111.60065	0.009304143
722	51.05	111.469	111.59413	0.008971104
723	51.1	109.547	111.60822	0.009128502
724	51.15	107.899	111.64351	0.009267926
725	51.2	112.653	111.70071	0.008876816
726	51.25	104.491	111.78078	0.009570202
727	51.3	112.56	111.88488	0.008884151
728	51.35	114.59	112.01442	0.008726765
729	51.4	110.01	112.1711	0.009090083
730	51.45	113.835	112.35693	0.008784644
731	51.5	112.142	112.57434	0.008917266
732	51.55	111.225	112.82617	0.008990784
733	51.6	112.764	113.1158	0.008868078
734	51.65	116.389	113.44725	0.008591877
735	51.7	117.754	113.8253	0.008492281
736	51.75	115.436	114.25564	0.008662809
737	51.8	120.899	114.74513	0.008271367
738	51.85	118.559	115.302	0.008434619
739	51.9	120.777	115.93627	0.008279722
740	51.95	113.374	116.66014	0.008820364
741	52	116.791	117.48869	0.008562304
742	52.05	123.867	118.44062	0.008073175
743	52.1	125.505	119.53942	0.00796781
744	52.15	113.013	120.81494	0.00884854
745	52.2	119.511	122.30563	0.008367431
746	52.25	114.972	124.06218	0.00869777
747	52.3	120.235	126.15396	0.008317046
748	52.35	124.987	128.68276	0.008000832
749	52.4	128.095	131.81441	0.007806706
750	52.45	130.688	135.85188	0.007651812
751	52.5	140.974	141.39129	0.007093507
752	52.55	150.487	149.61496	0.006645092
753	52.6	162.492	162.75008	0.006154149
754	52.65	185.64	184.60402	0.00538677
755	52.7	229.762	220.83606	0.00435233
756	52.75	295.447	278.29508	0.003384702
757	52.8	371.015	362.61122	0.002695309
758	52.85	486.651	473.8241	0.002054861
759	52.9	623.139	601.53238	0.001604778
760	52.95	733.613	722.40835	0.001363117
761	53	812.339	802.52526	0.001231013
762	53.05	816.569	809.14166	0.001224636
763	53.1	737.791	735.78845	0.001355397
764	53.15	591.376	613.85371	0.001690972
765	53.2	445.722	485.48856	0.002243551
766	53.25	341.566	378.35071	0.002927692
767	53.3	282.351	303.42139	0.003541691
768	53.35	245.421	260.85087	0.004074631
769	53.4	237.575	246.59494	0.004209197
770	53.45	256.29	258.2287	0.00390183
771	53.5	307.48	298.57044	0.003252244
772	53.55	384.787	376.26521	0.00259884
773	53.6	513.242	502.72885	0.001948399
774	53.65	715.843	684.96481	0.001396954
775	53.7	935.065	915.31012	0.001069444
776	53.75	1190.191	1162.51428	0.000840201
777	53.8	1388.721	1369.93238	0.000720087
778	53.85	1481.777	1466.75836	0.000674865
779	53.9	1420.651	1404.77224	0.000703903
780	53.95	1196.651	1207.09025	0.000835666
781	54	927.904	954.18507	0.001077698
782	54.05	712.423	720.13586	0.00140366
783	54.1	545.441	545.96319	0.001833379
784	54.15	486.564	445.5162	0.002055228
785	54.2	473.29	416.21699	0.002112869
786	54.25	509.153	447.24208	0.001964046
787	54.3	595.379	522.71669	0.001679602
788	54.35	683.364	620.54167	0.001463349
789	54.4	767.529	710.76953	0.001302882
790	54.45	805.428	758.10047	0.001241576
791	54.5	759.117	735.23641	0.00131732
792	54.55	645.979	645.84457	0.001548038
793	54.6	507.85	524.02403	0.001969085
794	54.65	380.274	404.93695	0.002629683
795	54.7	281.952	308.2626	0.003546703
796	54.75	217.691	239.53806	0.004593667
797	54.8	180.024	195.47951	0.005554815
798	54.85	156.683	169.15039	0.006382313
799	54.9	140.484	153.76903	0.007118248
800	54.95	137.71	144.50098	0.007261637
801	55	129.047	138.29187	0.007749115
802	55.05	120.546	133.76588	0.008295588
803	55.1	126.741	130.22898	0.007890107
804	55.15	120.372	127.34966	0.00830758
805	55.2	118.956	124.95132	0.00840647
806	55.25	117.286	122.92459	0.008526167
807	55.3	111.456	121.19344	0.00897215
808	55.35	115.929	119.70137	0.008625969
809	55.4	111.66	118.40521	0.008955759
810	55.45	109.627	117.27137	0.00912184
811	55.5	113.528	116.27328	0.0088084
812	55.55	112.588	115.38957	0.008881941
813	55.6	108.534	114.60263	0.009213703
814	55.65	119.737	113.89658	0.008351637
815	55.7	110.353	113.2564	0.009061829
816	55.75	111.862	112.69431	0.008939586
817	55.8	112.828	112.18789	0.008863048
818	55.85	114.16	111.73053	0.008759636
819	55.9	115.132	111.31989	0.008685683
820	55.95	117.875	110.9637	0.008483563
821	56	112.657	110.68357	0.008876501
822	56.05	110.316	110.37451	0.009064868
823	56.1	110.212	110.09314	0.009073422
824	56.15	109.59	109.83671	0.00912492
825	56.2	112.143	109.60273	0.008917186
826	56.25	108.82	109.38876	0.009189487
827	56.3	106.908	109.19193	0.009353837
828	56.35	108.371	109.00558	0.009227561
829	56.4	106.39	108.83267	0.00939938
830	56.45	114.388	108.69483	0.008742176
831	56.5	111.147	108.57211	0.008997094
832	56.55	112.678	108.4637	0.008874847
833	56.6	114.701	108.36891	0.00871832
834	56.65	110.289	108.28716	0.009067087
835	56.7	108.96	108.21797	0.00917768
836	56.75	112.466	108.16096	0.008891576
837	56.8	111.171	108.11583	0.008995152
838	56.85	111.034	108.08237	0.00900625
839	56.9	117.02	108.06044	0.008545548
840	56.95	112.984	108.04999	0.008850811
841	57	114.095	108.05105	0.008764626
842	57.05	112.507	108.06373	0.008888336
843	57.1	109.113	108.08822	0.009164811
844	57.15	108.735	108.12481	0.009196671
845	57.2	110.605	108.17388	0.009041183
846	57.25	110.613	108.2359	0.009040529
847	57.3	108.952	108.31147	0.009178354
848	57.35	110.008	108.40131	0.009090248
849	57.4	107.682	108.50626	0.009286603
850	57.45	111.618	108.62736	0.008959128
851	57.5	112.013	108.76579	0.008927535
852	57.55	114.183	108.92296	0.008757871
853	57.6	116.677	109.10053	0.008570669
854	57.65	109.726	109.30043	0.00911361
855	57.7	110.161	109.52495	0.009077623
856	57.75	116.577	109.77678	0.008578021
857	57.8	111.537	110.05911	0.008965635
858	57.85	113.451	110.37572	0.008814378
859	57.9	118.342	110.73112	0.008450085
860	57.95	118.617	111.13076	0.008430495
861	58	113.433	111.5812	0.008815777
862	58.05	110.363	112.09044	0.009061008
863	58.1	110.753	112.66831	0.009029101
864	58.15	116.784	113.327	0.008562817
865	58.2	117.732	114.08179	0.008493867
866	58.25	115.004	114.95202	0.00869535
867	58.3	117.273	115.96327	0.008527112
868	58.35	116.335	117.15497	0.008595865
869	58.4	117.038	118.57852	0.008544233
870	58.45	121.358	120.25725	0.008240083
871	58.5	124.983	122.31177	0.008001088
872	58.55	122.726	124.91438	0.008148233
873	58.6	124.514	128.40571	0.008031225
874	58.65	131.907	133.48526	0.007581099
875	58.7	144.319	141.53402	0.006929095
876	58.75	160.185	155.01928	0.006242782
877	58.8	180.709	177.73286	0.005533759
878	58.85	211.266	214.36572	0.004733369
879	58.9	272.307	268.84278	0.003672326
880	58.95	354.925	341.22573	0.002817497
881	59	447.286	424.19615	0.002235706
882	59.05	517.897	500.88322	0.001930886
883	59.1	562.55	547.01029	0.00177762
884	59.15	560.066	541.83689	0.001785504
885	59.2	486.19	486.83398	0.002056809
886	59.25	396.235	406.76086	0.002523755
887	59.3	317.53	327.69748	0.003149309
888	59.35	250.59	264.45256	0.003990582
889	59.4	217.911	221.62405	0.004589029
890	59.45	204.675	197.61404	0.004885795
891	59.5	190.365	188.64515	0.005253066
892	59.55	189.443	192.02572	0.005278633
893	59.6	206.412	208.16753	0.00484468
894	59.65	232.442	240.9573	0.004302148
895	59.7	294.685	297.36744	0.003393454
896	59.75	388.142	384.56404	0.002576377
897	59.8	508.621	505.36744	0.0019661
898	59.85	670.887	652.75896	0.001490564
899	59.9	853.021	806.40637	0.001172304
900	59.95	987.579	934.9672	0.001012577
901	60	1050.548	1010.14368	0.000951884
902	60.05	1081.358	1033.619	0.000924763
903	60.1	1078.881	1040.36405	0.000926886
904	60.15	1076.245	1058.50801	0.000929156
905	60.2	1098.8	1080.63505	0.000910084
906	60.25	1109.468	1068.99144	0.000901333
907	60.3	1048.03	985.86782	0.000954171
908	60.35	884.327	834.36511	0.001130803
909	60.4	672.637	656.53932	0.001486686
910	60.45	485.936	493.07031	0.002057884
911	60.5	360.933	364.76437	0.002770597
912	60.55	273.094	275.52746	0.003661743
913	60.6	209.881	219.13289	0.004764605
914	60.65	187.293	185.64964	0.005339228
915	60.7	165.091	166.02019	0.006057265
916	60.75	141.168	153.98429	0.007083758
917	60.8	139.264	145.94227	0.007180607
918	60.85	133.237	140.03065	0.007505423
919	60.9	128.15	135.42565	0.007803355
920	60.95	126.183	131.70656	0.007924998
921	61	119.951	128.64041	0.008336738
922	61.05	121.02	126.07843	0.008263097
923	61.1	118.823	123.91565	0.008415879
924	61.15	118.267	122.07406	0.008455444
925	61.2	116.586	120.49415	0.008577359
926	61.25	118.487	119.12976	0.008439744
927	61.3	115.828	117.94464	0.008633491
928	61.35	113.925	116.91002	0.008777705
929	61.4	113.704	116.00285	0.008794765
930	61.45	113.155	115.20445	0.008837435
931	61.5	111.425	114.49963	0.008974647
932	61.55	112.535	113.8759	0.008886124
933	61.6	114.804	113.32297	0.008710498
934	61.65	113.952	112.83227	0.008775625
935	61.7	110.336	112.39669	0.009063225
936	61.75	109.749	112.01027	0.0091117
937	61.8	109.611	111.66801	0.009123172
938	61.85	108.602	111.36575	0.009207934
939	61.9	112.026	111.10001	0.008926499
940	61.95	116.269	110.86789	0.008600745
941	62	117.383	110.66701	0.008519121
942	62.05	113.994	110.49546	0.008772392
943	62.1	113.577	110.35172	0.0088046
944	62.15	116.936	110.23465	0.008551686
945	62.2	114.4	110.14349	0.008741259
946	62.25	103.586	110.07777	0.009653814
947	62.3	115.035	110.03742	0.008693006
948	62.35	118.902	110.02269	0.008410287
949	62.4	113.513	110.0342	0.008809564
950	62.45	114.955	110.07298	0.008699056
951	62.5	123.439	110.14052	0.008101167
952	62.55	116.102	110.23879	0.008613116
953	62.6	119.149	110.37034	0.008392853
954	62.65	111.536	110.53637	0.008965715
955	62.7	116.944	110.73897	0.008551101
956	62.75	123.182	110.98158	0.008118069
957	62.8	114.5	111.26709	0.008733624
958	62.85	112.951	111.59334	0.008853397
959	62.9	120.695	111.90012	0.008285347
960	62.95	120.56	112.4247	0.008294625
961	63	118.759	113.04985	0.008420414
962	63.05	118.928	113.79695	0.008408449
963	63.1	123.918	114.69383	0.008069853
964	63.15	124.224	115.77723	0.008049974
965	63.2	119.229	117.09689	0.008387221
966	63.25	126.388	118.72326	0.007912144
967	63.3	124.879	120.76494	0.008007752
968	63.35	123.167	123.4122	0.008119058
969	63.4	122.268	127.042	0.008178755
970	63.45	137.76	132.44402	0.007259001
971	63.5	145.911	141.22352	0.006853493
972	63.55	165.479	156.33554	0.006043063
973	63.6	197.431	182.44348	0.005065061
974	63.65	238.119	225.45409	0.004199581
975	63.7	307.898	290.49463	0.003247829
976	63.75	383.791	378.12837	0.002605585
977	63.8	463.01	479.6483	0.002159781
978	63.85	560.68	573.60897	0.001783549
979	63.9	607.302	628.09254	0.001646627
980	63.95	590.1	616.68408	0.001694628
981	64	535.765	543.6271	0.00186649
982	64.05	428.007	441.43522	0.00233641
983	64.1	336.418	341.70091	0.002972493
984	64.15	269.052	261.3792	0.003716754
985	64.2	225.555	204.9451	0.004433508
986	64.25	182.367	169.3313	0.005483448
987	64.3	162.285	148.48688	0.006161999
988	64.35	147.522	136.6256	0.00677865
989	64.4	140.275	129.65317	0.007128854
990	64.45	130.257	125.19793	0.007677131
991	64.5	130.723	122.0658	0.007649763
992	64.55	127.501	119.71129	0.007843076
993	64.6	115.902	117.86121	0.008627979
994	64.65	117.213	116.35102	0.008531477
995	64.7	119.953	115.11176	0.008336599
996	64.75	118.125	114.08359	0.008465608
997	64.8	119.341	113.22284	0.00837935
998	64.85	115.659	112.49666	0.008646106
999	64.9	111.804	111.87989	0.008944224
1000	64.95	115.227	111.35302	0.008678522
1001	65	115.298	110.90075	0.008673177
1002	65.05	116.729	110.51093	0.008566851
1003	65.1	115.481	110.17382	0.008659433
1004	65.15	114.425	109.88158	0.008739349
1005	65.2	115.251	109.6278	0.008676714
1006	65.25	110.295	109.40976	0.009066594
1007	65.3	116.419	109.22588	0.008589663
1008	65.35	108.527	109.05953	0.009214297
1009	65.4	111.958	108.91544	0.008931921
1010	65.45	114.906	108.79108	0.008702766
1011	65.5	110.239	108.68432	0.0090712
1012	65.55	115.078	108.59334	0.008689758
1013	65.6	113.626	108.5166	0.008800803
1014	65.65	112.356	108.4528	0.008900281
1015	65.7	109.181	108.40081	0.009159103
1016	65.75	112.841	108.35967	0.008862027
1017	65.8	113.779	108.32856	0.008788968
1018	65.85	106.835	108.30678	0.009360228
1019	65.9	117.273	108.29373	0.008527112
1020	65.95	118.359	108.28888	0.008448872
1021	66	115.502	108.29182	0.008657859
1022	66.05	114.499	108.30216	0.008733701
1023	66.1	112.505	108.3196	0.008888494
1024	66.15	112.41	108.34389	0.008896006
1025	66.2	110.147	108.37483	0.009078777
1026	66.25	112.314	108.41224	0.00890361
1027	66.3	117.413	108.45602	0.008516944
1028	66.35	118.087	108.50609	0.008468333
1029	66.4	113.736	108.56238	0.008792291
1030	66.45	111.549	108.62491	0.00896467
1031	66.5	106.466	108.69368	0.00939267
1032	66.55	112.465	108.76874	0.008891655
1033	66.6	113.628	108.85019	0.008800648
1034	66.65	112.006	108.93814	0.008928093
1035	66.7	113.645	109.03273	0.008799331
1036	66.75	111.945	109.13414	0.008932958
1037	66.8	112.03	109.24258	0.00892618
1038	66.85	115.01	109.3583	0.008694896
1039	66.9	117.36	109.48157	0.008520791
1040	66.95	110.811	109.61273	0.009024375
1041	67	119.929	109.75212	0.008338267
1042	67.05	114.322	109.90015	0.008747223
1043	67.1	112.452	110.05727	0.008892683
1044	67.15	113.098	110.22398	0.008841889
1045	67.2	109.306	110.40085	0.009148629
1046	67.25	115.513	110.58848	0.008657034
1047	67.3	116.409	110.78756	0.008590401
1048	67.35	119.534	110.99886	0.008365821
1049	67.4	114.6	111.22322	0.008726003
1050	67.45	109.679	111.46158	0.009117516
1051	67.5	108.929	111.71498	0.009180292
1052	67.55	113.797	111.98457	0.008787578
1053	67.6	111.695	112.2716	0.008952952
1054	67.65	111.93	112.5769	0.008934155
1055	67.7	120.66	112.90161	0.008287751
1056	67.75	116.899	113.24679	0.008554393
1057	67.8	117.637	113.61208	0.008500727
1058	67.85	116.663	113.99163	0.008571698
1059	67.9	117.652	114.42093	0.008499643
1060	67.95	117.611	114.88233	0.008502606
1061	68	114.522	115.37912	0.008731947
1062	68.05	117.625	115.91505	0.008501594
1063	68.1	113.101	116.4944	0.008841655
1064	68.15	113.266	117.12208	0.008828775
1065	68.2	119.178	117.80373	0.00839081
1066	68.25	112.334	118.54587	0.008902024
1067	68.3	113.775	119.35608	0.008789277
1068	68.35	117.582	120.24318	0.008504703
1069	68.4	120.347	121.2175	0.008309306
1070	68.45	120.131	122.29114	0.008324246
1071	68.5	127.904	123.47732	0.007818364
1072	68.55	129.039	124.79372	0.007749595
1073	68.6	131.752	126.3243	0.007590018
1074	68.65	131.652	127.97381	0.007595783
1075	68.7	136.279	129.79202	0.007337888
1076	68.75	131.89	131.89032	0.007582076
1077	68.8	137.45	134.27844	0.007275373
1078	68.85	135.353	137.01373	0.007388089
1079	68.9	140.419	140.16854	0.007121543
1080	68.95	139.275	143.83514	0.007180039
1081	69	141.574	148.13271	0.007063444
1082	69.05	139.069	153.21728	0.007190675
1083	69.1	141.609	159.29741	0.007061698
1084	69.15	143.122	166.66383	0.006987046
1085	69.2	151.515	175.7525	0.006600007
1086	69.25	166.698	187.29879	0.005998872
1087	69.3	173.771	202.75843	0.0057547
1088	69.35	194.69	225.15593	0.005136371
1089	69.4	230.45	260.71882	0.004339336
1090	69.45	299.309	321.16995	0.003341029
1091	69.5	401.914	425.41922	0.002488094
1092	69.55	573.287	597.9967	0.001744327
1093	69.6	842.612	861.06093	0.001186786
1094	69.65	1188.027	1219.27189	0.000841732
1095	69.7	1603.93	1640.21265	0.000623469
1096	69.75	2029.875	2036.38364	0.000492641
1097	69.8	2298.46	2268.90202	0.000435074
1098	69.85	2317.833	2221.38892	0.000431437
1099	69.9	2041.486	1917.16175	0.000489839
1100	69.95	1611.164	1497.73784	0.000620669
1101	70	1169.346	1092.8827	0.000855179
1102	70.05	843.5	769.67748	0.001185536
1103	70.1	612.222	544.7576	0.001633394
1104	70.15	469.275	404.89909	0.002130947
1105	70.2	382.783	325.4582	0.002612446
1106	70.25	328.389	283.34826	0.003045169
1107	70.3	294.82	262.68848	0.0033919
1108	70.35	283.21	255.07517	0.003530949
1109	70.4	276.759	257.99189	0.003613252
1110	70.45	295.311	273.8317	0.003386261
1111	70.5	325.316	310.16173	0.003073934
1112	70.55	390.697	380.19147	0.002559528
1113	70.6	504.097	501.16193	0.001983745
1114	70.65	692.016	688.26296	0.001445053
1115	70.7	948.474	943.5245	0.001054325
1116	70.75	1277.297	1241.78101	0.000782903
1117	70.8	1558.123	1518.13163	0.000641798
1118	70.85	1748.358	1672.37054	0.000571965
1119	70.9	1774.675	1624.83762	0.000563483
1120	70.95	1563.575	1397.79591	0.00063956
1121	71	1201.465	1093.58355	0.000832317
1122	71.05	855.809	802.86955	0.001168485
1123	71.1	593.789	571.53763	0.0016841
1124	71.15	415.316	410.11206	0.002407805
1125	71.2	311.598	308.41427	0.003209263
1126	71.25	247.239	248.57831	0.004044669
1127	71.3	211.66	214.04587	0.004724558
1128	71.35	183.146	193.29766	0.005460125
1129	71.4	168.502	179.72494	0.005934648
1130	71.45	156.827	170.00784	0.006376453
1131	71.5	148.735	162.58222	0.006723367
1132	71.55	139.104	156.69017	0.007188866
1133	71.6	123.003	151.91905	0.008129883
1134	71.65	127.113	148.00999	0.007867016
1135	71.7	126.109	144.78336	0.007929648
1136	71.75	124.513	142.10773	0.00803129
1137	71.8	119.546	139.88456	0.008364981
1138	71.85	125.619	138.03891	0.007960579
1139	71.9	123.091	136.51346	0.008124071
1140	71.95	121.289	135.26418	0.008244771
1141	72	119.693	134.25742	0.008354707
1142	72.05	124.455	133.46774	0.008035033
1143	72.1	125.559	132.87644	0.007964383
1144	72.15	127.688	132.47056	0.007831589
1145	72.2	128.072	132.24217	0.007808108
1146	72.25	125.379	132.18807	0.007975817
1147	72.3	129.044	132.30973	0.007749295
1148	72.35	129.138	132.61349	0.007743654
1149	72.4	118.545	133.11108	0.008435615
1150	72.45	122.835	133.82295	0.008141002
1151	72.5	124.265	134.79759	0.008047318
1152	72.55	132.768	136.01862	0.007531935
1153	72.6	134.308	137.56215	0.007445573
1154	72.65	131.482	139.49569	0.007605604
1155	72.7	134.214	141.91553	0.007450788
1156	72.75	133.929	144.9703	0.007466643
1157	72.8	131.735	148.9198	0.007590997
1158	72.85	139.39	154.27804	0.007174116
1159	72.9	148.482	162.11798	0.006734823
1160	72.95	158.954	174.59727	0.006291128
1161	73	181.145	195.6012	0.005520439
1162	73.05	224.664	231.0349	0.004451091
1163	73.1	277.425	287.91895	0.003604578
1164	73.15	364.835	371.55022	0.002740965
1165	73.2	470.941	480.84726	0.002123408
1166	73.25	598.062	602.80184	0.001672067
1167	73.3	706.571	707.79817	0.001415286
1168	73.35	763.334	754.7083	0.001310043
1169	73.4	745.62	720.67605	0.001341166
1170	73.45	645.315	628.21117	0.001549631
1171	73.5	534.655	522.14063	0.001870365
1172	73.55	448.701	437.05505	0.002228656
1173	73.6	401.581	391.33572	0.002490158
1174	73.65	403.117	390.72956	0.002480669
1175	73.7	438.509	430.97898	0.002280455
1176	73.75	500.425	498.72261	0.001998301
1177	73.8	579.657	570.73216	0.001725158
1178	73.85	622.939	615.46359	0.001605294
1179	73.9	630.636	608.91608	0.001585701
1180	73.95	581.693	558.38974	0.00171912
1181	74	515.109	495.49904	0.001941337
1182	74.05	470.208	449.26807	0.002126718
1183	74.1	453.145	435.76058	0.002206799
1184	74.15	473.567	458.87082	0.002111634
1185	74.2	542.641	512.40765	0.001842839
1186	74.25	623.813	582.66017	0.001603045
1187	74.3	700.161	654.75626	0.001428243
1188	74.35	777.895	729.14058	0.001285521
1189	74.4	872.934	830.7098	0.001145562
1190	74.45	1008.973	987.38278	0.000991107
1191	74.5	1204.126	1201.76978	0.000830478
1192	74.55	1446.482	1437.10244	0.000691332
1193	74.6	1633.865	1612.6892	0.000612046
1194	74.65	1712.164	1631.01735	0.000584056
1195	74.7	1586.336	1463.97159	0.000630383
1196	74.75	1305.801	1187.3715	0.000765813
1197	74.8	969.181	897.85166	0.001031799
1198	74.85	695.514	653.55122	0.001437786
1199	74.9	510.962	475.02183	0.001957093
1200	74.95	381.991	358.89808	0.002617863
1201	75	306.719	290.56803	0.003260313
1202	75.05	269.282	254.03745	0.003713579
1203	75.1	247.933	237.13114	0.004033348
1204	75.15	234.281	232.1859	0.004268379
1205	75.2	235.032	234.55832	0.00425474
1206	75.25	240.558	240.62602	0.004157002
1207	75.3	246.448	246.61878	0.004057651
1208	75.35	246.759	249.83195	0.004052537
1209	75.4	249.375	252.19398	0.004010025
1210	75.45	256.827	261.12536	0.003893672
1211	75.5	290.117	287.139	0.003446885
1212	75.55	338.124	342.28504	0.002957495
1213	75.6	440.176	437.93662	0.002271819
1214	75.65	578.585	579.6228	0.001728355
1215	75.7	777.406	759.38543	0.001286329
1216	75.75	999.456	947.02012	0.001000544
1217	75.8	1171.852	1084.52365	0.00085335
1218	75.85	1247.717	1106.22272	0.000801464
1219	75.9	1156.587	998.01551	0.000864613
1220	75.95	947.473	814.89719	0.001055439
1221	76	702.18	622.60808	0.001424136
1222	76.05	503.009	460.11254	0.001988036
1223	76.1	357.675	341.00814	0.002795834
1224	76.15	272.013	262.77535	0.003676295
1225	76.2	218.098	215.3114	0.004585095
1226	76.25	196.298	187.55176	0.005094295
1227	76.3	173.463	170.99274	0.005764918
1228	76.35	161.286	160.37969	0.006200166
1229	76.4	151.719	152.92607	0.006591132
1230	76.45	142.959	147.28269	0.006995013
1231	76.5	130.543	142.80213	0.007660311
1232	76.55	125.663	139.14622	0.007957792
1233	76.6	125.86	136.11212	0.007945336
1234	76.65	125.591	133.56282	0.007962354
1235	76.7	122.527	131.39909	0.008161466
1236	76.75	118.028	129.54645	0.008472566
1237	76.8	121.152	127.94787	0.008254094
1238	76.85	118.435	126.55904	0.00844345
1239	76.9	124.144	125.34511	0.008055162
1240	76.95	124.683	124.2784	0.00802034
1241	77	117.783	123.33668	0.00849019
1242	77.05	119.544	122.54847	0.008365121
1243	77.1	120.631	121.82108	0.008289743
1244	77.15	117.107	121.15914	0.008539199
1245	77.2	115.664	120.56735	0.008645732
1246	77.25	120.732	120.03735	0.008282808
1247	77.3	121.628	119.56215	0.008221791
1248	77.35	116.56	119.13588	0.008579272
1249	77.4	111.033	118.75358	0.009006331
1250	77.45	120.324	118.42908	0.008310894
1251	77.5	117.589	118.12288	0.008504197
1252	77.55	117.666	117.8499	0.008498632
1253	77.6	117.532	117.60761	0.008508321
1254	77.65	116.385	117.39388	0.008592173
1255	77.7	117.979	117.21127	0.008476085
1256	77.75	113.218	117.05109	0.008832518
1257	77.8	118.524	116.91373	0.00843711
1258	77.85	121.102	116.79967	0.008257502
1259	77.9	119.385	116.70826	0.008376262
1260	77.95	126.013	116.6391	0.007935689
1261	78	122	116.59202	0.008196721
1262	78.05	116.582	116.5671	0.008577653
1263	78.1	117.373	116.56465	0.008519847
1264	78.15	117.667	116.58526	0.008498559
1265	78.2	122.876	116.62978	0.008138286
1266	78.25	114.496	116.6994	0.00873393
1267	78.3	110.587	116.79563	0.009042654
1268	78.35	122.897	116.9204	0.008136895
1269	78.4	121.613	117.07612	0.008222805
1270	78.45	119.663	117.26574	0.008356802
1271	78.5	119.928	117.49288	0.008338336
1272	78.55	120.62	117.76196	0.008290499
1273	78.6	118.035	118.07816	0.008472063
1274	78.65	115.987	118.44671	0.008621656
1275	78.7	119.705	118.87359	0.00835387
1276	78.75	124.512	119.35887	0.008031354
1277	78.8	123.247	119.94853	0.008113788
1278	78.85	117.102	120.63864	0.008539564
1279	78.9	120.923	121.44911	0.008269725
1280	78.95	125.644	122.40533	0.007958995
1281	79	126.025	123.54012	0.007934934
1282	79.05	125.784	124.89645	0.007950137
1283	79.1	127.707	126.53176	0.007830424
1284	79.15	133.316	128.52563	0.007500975
1285	79.2	132.571	130.99634	0.007543128
1286	79.25	137.395	134.14159	0.007278285
1287	79.3	144.401	138.33851	0.00692516
1288	79.35	150.903	144.36532	0.006626773
1289	79.4	161.322	153.80932	0.006198783
1290	79.45	174.344	169.62879	0.005735787
1291	79.5	214.492	196.5672	0.004662179
1292	79.55	253.14	240.76318	0.003950383
1293	79.6	316.655	307.8291	0.003158011
1294	79.65	400.068	399.25409	0.002499575
1295	79.7	494.046	507.7408	0.002024103
1296	79.75	584.693	612.05478	0.001710299
1297	79.8	646.305	675.60831	0.001547257
1298	79.85	643.255	665.79516	0.001554593
1299	79.9	572.562	588.48304	0.001746536
1300	79.95	489.795	481.07768	0.00204167
1301	80	386.805	376.97823	0.002585282
1302	80.05	311.054	293.37446	0.003214876
1303	80.1	260.602	234.9849	0.003837269
1304	80.15	225.185	199.31987	0.004440793
1305	80.2	209.584	181.30783	0.004771357
1306	80.25	201.848	176.62339	0.004954223
1307	80.3	207.674	183.02509	0.004815239
1308	80.35	218.805	199.8222	0.004570279
1309	80.4	240.329	226.19099	0.004160963
1310	80.45	270.672	259.11226	0.003694508
1311	80.5	294.976	291.33101	0.003390106
1312	80.55	315.244	310.68097	0.003172146
1313	80.6	305.34	306.22501	0.003275038
1314	80.65	288.134	279.56293	0.003470607
1315	80.7	249.601	242.8467	0.004006394
1316	80.75	208.49	207.1076	0.004796393
1317	80.8	183.323	178.05575	0.005454853
1318	80.85	160.416	157.22835	0.006233792
1319	80.9	145.736	143.66931	0.006861723
1320	80.95	133.148	135.38926	0.00751044
1321	81	129.977	130.42655	0.007693669
1322	81.05	129.505	127.34677	0.00772171
1323	81.1	120.257	125.3237	0.008315524
1324	81.15	123.011	123.8366	0.008129354
1325	81.2	126.154	122.68865	0.00792682
1326	81.25	122.959	121.77515	0.008132792
1327	81.3	118.474	121.03561	0.008440671
1328	81.35	116.15	120.43215	0.008609557
1329	81.4	115.978	119.93845	0.008622325
1330	81.45	121.318	119.53513	0.0082428
1331	81.5	117.114	119.20753	0.008538689
1332	81.55	115.78	118.94441	0.00863707
1333	81.6	121.75	118.73705	0.008213552
1334	81.65	112.942	118.57868	0.008854102
1335	81.7	116.859	118.46402	0.008557321
1336	81.75	119.458	118.38897	0.008371143
1337	81.8	116.903	118.35039	0.0085541
1338	81.85	120.952	118.34593	0.008267743
1339	81.9	119.372	118.37388	0.008377174
1340	81.95	120.913	118.43312	0.008270409
1341	82	116.682	118.52302	0.008570302
1342	82.05	115.086	118.6434	0.008689154
1343	82.1	118.109	118.79453	0.008466755
1344	82.15	113.408	118.98967	0.00881772
1345	82.2	114.682	119.21704	0.008719764
1346	82.25	116.514	119.46684	0.00858266
1347	82.3	116.012	119.7522	0.008619798
1348	82.35	121.449	120.07612	0.008233909
1349	82.4	129.092	120.44168	0.007746413
1350	82.45	118.819	120.85255	0.008416162
1351	82.5	117.427	121.31316	0.008515929
1352	82.55	115.745	121.82877	0.008639682
1353	82.6	120.659	122.40564	0.008287819
1354	82.65	118.268	123.05122	0.008455373
1355	82.7	117.528	123.77435	0.008508611
1356	82.75	126.507	124.58562	0.007904701
1357	82.8	128.087	125.53666	0.007807194
1358	82.85	120.949	126.59523	0.008267948
1359	82.9	125.423	127.75844	0.007973019
1360	82.95	122.943	129.07867	0.008133851
1361	83	122.229	130.5935	0.008181364
1362	83.05	129.194	132.32698	0.007740298
1363	83.1	132.464	134.31248	0.007549221
1364	83.15	135.003	136.61248	0.007407243
1365	83.2	135.501	139.29527	0.007380019
1366	83.25	139.125	142.44818	0.007187781
1367	83.3	142.024	146.18495	0.007041063
1368	83.35	149.515	150.65647	0.006688292
1369	83.4	154.275	156.06929	0.006481932
1370	83.45	155.023	162.72385	0.006450656
1371	83.5	164.848	171.10493	0.006066194
1372	83.55	174.364	182.10164	0.005735129
1373	83.6	198.042	197.50013	0.005049434
1374	83.65	227.287	220.92087	0.004399724
1375	83.7	267.966	259.20639	0.003731817
1376	83.75	327.648	323.71001	0.003052056
1377	83.8	443.74	430.06877	0.002253572
1378	83.85	614.257	594.57606	0.001627983
1379	83.9	866.292	826.19683	0.001154345
1380	83.95	1182.287	1115.14277	0.000845818
1381	84	1494.738	1419.18801	0.000669014
1382	84.05	1751.099	1653.03547	0.00057107
1383	84.1	1837.906	1714.99569	0.000544097
1384	84.15	1699.26	1573.52894	0.000588491
1385	84.2	1388.682	1300.48958	0.000720107
1386	84.25	1046.243	996.38977	0.000955801
1387	84.3	746.364	728.46747	0.001339829
1388	84.35	544.572	524.46477	0.001836304
1389	84.4	406.869	385.32846	0.002457794
1390	84.45	318.066	298.11079	0.003144002
1391	84.5	262.013	246.23616	0.003816605
1392	84.55	228.274	215.7007	0.0043807
1393	84.6	206.026	197.16738	0.004853756
1394	84.65	196.197	185.46166	0.005096918
1395	84.7	181.928	178.22687	0.00549668
1396	84.75	179.415	174.83223	0.00557367
1397	84.8	176.483	175.91565	0.005666268
1398	84.85	183.562	182.47694	0.005447751
1399	84.9	197.621	195.5459	0.005060191
1400	84.95	215.922	215.17506	0.004631302
1401	85	244.585	239.32382	0.004088558
1402	85.05	262.092	262.6082	0.003815454
1403	85.1	276.464	275.93094	0.003617107
1404	85.15	268.586	271.33329	0.003723202
1405	85.2	250.2	250.47138	0.003996803
1406	85.25	224.726	222.60714	0.004449863
1407	85.3	196.476	195.90948	0.00508968
1408	85.35	181.431	174.63253	0.005511737
1409	85.4	160.672	160.00282	0.00622386
1410	85.45	156.492	151.34664	0.006390103
1411	85.5	148.513	147.02258	0.006733417
1412	85.55	147.137	145.06195	0.006796387
1413	85.6	144.142	143.54379	0.006937603
1414	85.65	140.337	141.1511	0.007125705
1415	85.7	131.076	137.78111	0.007629162
1416	85.75	128.704	134.10966	0.007769766
1417	85.8	126.108	130.70358	0.007929711
1418	85.85	126.15	127.98033	0.007927071
1419	85.9	120.003	125.92742	0.008333125
1420	85.95	119.556	124.49304	0.008364281
1421	86	124.373	123.45607	0.00804033
1422	86.05	124.625	122.70011	0.008024072
1423	86.1	118.117	122.12896	0.008466182
1424	86.15	113.523	121.678	0.008808788
1425	86.2	122.915	121.31086	0.008135704
1426	86.25	120.736	121.00773	0.008282534
1427	86.3	120.693	120.75729	0.008285485
1428	86.35	117.998	120.55243	0.00847472
1429	86.4	116.551	120.38826	0.008579935
1430	86.45	120.279	120.26126	0.008314003
1431	86.5	117.365	120.16889	0.008520428
1432	86.55	116.045	120.10937	0.008617347
1433	86.6	117.923	120.08159	0.00848011
1434	86.65	121.877	120.08501	0.008204994
1435	86.7	120.342	120.11964	0.008309651
1436	86.75	118.299	120.18602	0.008453157
1437	86.8	117.262	120.28522	0.008527912
1438	86.85	120.294	120.41892	0.008312967
1439	86.9	115.557	120.58939	0.008653738
1440	86.95	118.231	120.79964	0.008458019
1441	87	120.428	121.05352	0.008303717
1442	87.05	119.68	121.35589	0.008355615
1443	87.1	119.089	121.71278	0.008397081
1444	87.15	112.331	122.13176	0.008902262
1445	87.2	114.458	122.62224	0.008736829
1446	87.25	120.696	123.19599	0.008285279
1447	87.3	119.798	123.86783	0.008347385
1448	87.35	111.979	124.65654	0.008930246
1449	87.4	125.904	125.58609	0.007942559
1450	87.45	123.557	126.68745	0.008093431
1451	87.5	115.82	128.00111	0.008634087
1452	87.55	116.951	129.58119	0.00855059
1453	87.6	114.643	131.50274	0.008722731
1454	87.65	128.324	133.87774	0.007792775
1455	87.7	132.968	136.8931	0.007520606
1456	87.75	134.802	140.90061	0.007418288
1457	87.8	135.911	146.60731	0.007357756
1458	87.85	148.097	155.4114	0.006752331
1459	87.9	157.551	169.8467	0.006347151
1460	87.95	178.008	193.89527	0.005617725
1461	88	222.542	232.67365	0.004493534
1462	88.05	281.365	290.95916	0.003554102
1463	88.1	379.605	370.44392	0.002634317
1464	88.15	516.322	466.12297	0.001936776
1465	88.2	645.037	562.00235	0.001550299
1466	88.25	733.271	628.20743	0.001363752
1467	88.3	706.16	632.93228	0.00141611
1468	88.35	615.944	573.55103	0.001623524
1469	88.4	480.206	479.86447	0.00208244
1470	88.45	354.601	383.26283	0.002820071
1471	88.5	280.887	301.49522	0.003560151
1472	88.55	220.814	240.748	0.004528698
1473	88.6	192.03	199.98933	0.00520752
1474	88.65	165.065	174.66857	0.006058219
1475	88.7	156.301	159.60384	0.006397912
1476	88.75	149.667	150.62988	0.0066815
1477	88.8	145.067	145.03752	0.006893367
1478	88.85	140.744	141.30739	0.007105099
1479	88.9	134.448	138.65812	0.00743782
1480	88.95	128.606	136.74662	0.007775687
1481	89	138.368	135.35967	0.007227105
1482	89.05	134.965	134.38813	0.007409328
1483	89.1	132.568	133.76463	0.007543299
1484	89.15	129.921	133.44678	0.007696985
1485	89.2	128.031	133.40974	0.007810608
1486	89.25	132.206	133.6425	0.007563953
1487	89.3	135.403	134.14396	0.007385361
1488	89.35	135.421	134.92201	0.007384379
1489	89.4	135.819	136.02713	0.00736274
1490	89.45	133.663	137.48997	0.007481502
1491	89.5	139.367	139.37433	0.0071753
1492	89.55	144.217	141.77162	0.006933995
1493	89.6	139.918	144.82556	0.007147043
1494	89.65	137.743	148.75991	0.007259897
1495	89.7	148.384	153.95664	0.006739271
1496	89.75	165.266	161.29001	0.006050851
1497	89.8	175.201	172.43688	0.00570773
1498	89.85	195.187	190.44497	0.005123292
1499	89.9	232.802	220.41302	0.004295496
1500	89.95	279.803	269.43849	0.003573943
1501	90	378.002	345.20691	0.002645489
1502	90.05	481.803	452.7617	0.002075537
1503	90.1	670.439	589.38363	0.00149156
1504	90.15	847.379	739.08443	0.001180109
1505	90.2	1009.09	866.33824	0.000990992
1506	90.25	1078.142	920.37175	0.000927522
1507	90.3	987.173	872.26532	0.001012994
1508	90.35	802.033	748.09998	0.001246831
1509	90.4	585.718	598.6385	0.001707306
1510	90.45	422.459	460.63931	0.002367094
1511	90.5	310.985	351.10427	0.003215589
1512	90.55	242.167	273.31867	0.004129382
1513	90.6	197.876	222.69764	0.00505367
1514	90.65	176.672	191.64431	0.005660206
1515	90.7	152.558	172.96113	0.006554884
1516	90.75	146.722	161.39933	0.00681561
1517	90.8	142.837	153.75291	0.007000987
1518	90.85	132.74	148.29313	0.007533524
1519	90.9	134.685	144.1404	0.007424732
1520	90.95	133.528	140.83021	0.007489066
1521	91	129.398	138.19908	0.007728095
1522	91.05	127.987	136.05379	0.007813294
1523	91.1	121.396	134.2907	0.008237504
1524	91.15	125.218	132.83521	0.007986072
1525	91.2	121.923	131.63119	0.008201898
1526	91.25	124.722	130.63568	0.008017832
1527	91.3	121.338	129.81549	0.008241441
1528	91.35	121.078	129.14477	0.008259139
1529	91.4	119.633	128.60335	0.008358898
1530	91.45	122.312	128.17547	0.008175813
1531	91.5	127.463	127.84886	0.007845414
1532	91.55	123.6	127.61409	0.008090615
1533	91.6	119.435	127.46408	0.008372755
1534	91.65	114.573	127.39371	0.00872806
1535	91.7	114.974	127.39962	0.008697619
1536	91.75	118.817	127.47998	0.008416304
1537	91.8	116.009	127.63441	0.008620021
1538	91.85	125.155	127.86396	0.007990092
1539	91.9	122.316	128.17109	0.008175545
1540	91.95	124.434	128.55978	0.008036389
1541	92	119.169	129.03564	0.008391444
1542	92.05	124.435	129.60612	0.008036324
1543	92.1	127.789	130.28074	0.0078254
1544	92.15	125.209	131.07161	0.007986646
1545	92.2	120.117	131.99384	0.008325216
1546	92.25	128.895	133.06631	0.007758253
1547	92.3	129.916	134.31254	0.007697281
1548	92.35	134.209	135.76199	0.007451065
1549	92.4	135.025	137.45166	0.007406036
1550	92.45	136.953	139.42845	0.007301775
1551	92.5	143.22	141.75224	0.006982265
1552	92.55	146.095	144.50406	0.006844861
1553	92.6	149.36	147.78358	0.006695233
1554	92.65	152.133	151.72303	0.006573196
1555	92.7	152.601	156.5226	0.006553037
1556	92.75	169.144	162.49377	0.005912122
1557	92.8	183.017	170.18508	0.005463973
1558	92.85	199.844	180.65116	0.005003903
1559	92.9	224.245	195.9514	0.004459408
1560	92.95	257.908	219.88728	0.003877352
1561	93	312.294	258.73093	0.003202111
1562	93.05	383.66	321.28253	0.002606474
1563	93.1	485.674	417.31757	0.002058994
1564	93.15	611.3	553.8228	0.001635858
1565	93.2	764.323	729.34927	0.001308347
1566	93.25	935.367	927.07118	0.001069099
1567	93.3	1086.711	1106.79742	0.000920208
1568	93.35	1112.368	1205.99039	0.000898983
1569	93.4	1066.553	1178.90632	0.0009376
1570	93.45	975.895	1047.82917	0.0010247
1571	93.5	835.467	879.3573	0.001196935
1572	93.55	699.257	728.68169	0.001430089
1573	93.6	626.154	623.34418	0.001597051
1574	93.65	604.338	568.12833	0.001654703
1575	93.7	584.941	550.50265	0.001709574
1576	93.75	570.189	545.47638	0.001753804
1577	93.8	528.987	526.69959	0.001890406
1578	93.85	481.177	485.47852	0.002078237
1579	93.9	428.696	433.44721	0.002332655
1580	93.95	377.893	385.22204	0.002646252
1581	94	343.635	348.00228	0.002910064
1582	94.05	327.772	320.97079	0.003050901
1583	94.1	306.356	297.73887	0.003264176
1584	94.15	283.213	272.32705	0.003530911
1585	94.2	250.376	244.61956	0.003993993
1586	94.25	216.794	218.02486	0.004612674
1587	94.3	193.112	195.18925	0.005178342
1588	94.35	171.189	177.15898	0.005841497
1589	94.4	156.432	163.84317	0.006392554
1590	94.45	150.955	154.47512	0.006624491
1591	94.5	142.111	148.02684	0.007036753
1592	94.55	143.953	143.55849	0.006946712
1593	94.6	134.654	140.31199	0.007426441
1594	94.65	130.144	137.83156	0.007683796
1595	94.7	133.078	135.84688	0.00751439
1596	94.75	129.629	134.20809	0.007714323
1597	94.8	128.55	132.83087	0.007779074
1598	94.85	128.157	131.66628	0.007802929
1599	94.9	124.926	130.68948	0.008004739
1600	94.95	126.158	129.87874	0.007926568
1601	95	127.974	129.22669	0.007814087
1602	95.05	128.956	128.72554	0.007754583
1603	95.1	117.652	128.34582	0.008499643
1604	95.15	131.371	128.06859	0.00761203
1605	95.2	123.988	127.8478	0.008065297
1606	95.25	122.9	127.57754	0.008136697
1607	95.3	128.252	127.18554	0.007797149
1608	95.35	124.498	126.68655	0.008032258
1609	95.4	123.535	126.15942	0.008094872
1610	95.45	118.837	125.67326	0.008414888
1611	95.5	120.731	125.26344	0.008282877
1612	95.55	115.894	124.93991	0.008628574
1613	95.6	118.754	124.69704	0.008420769
1614	95.65	121.024	124.52179	0.008262824
1615	95.7	123.092	124.40007	0.008124005
1616	95.75	122.709	124.32039	0.008149361
1617	95.8	121.138	124.27496	0.008255048
1618	95.85	114.613	124.25881	0.008725014
1619	95.9	122.51	124.26022	0.008162599
1620	95.95	118.736	124.29761	0.008422046
1621	96	119.439	124.36057	0.008372475
1622	96.05	118.569	124.44922	0.008433908
1623	96.1	115.45	124.564	0.008661758
1624	96.15	117.158	124.70571	0.008535482
1625	96.2	125.836	124.87549	0.007946851
1626	96.25	121.757	125.07483	0.00821308
1627	96.3	119.244	125.30558	0.008386166
1628	96.35	124.996	125.57005	0.008000256
1629	96.4	123.01	125.87102	0.00812942
1630	96.45	122.867	126.21183	0.008138882
1631	96.5	123.18	126.5965	0.008118201
1632	96.55	124.043	127.02983	0.008061721
1633	96.6	120.517	127.51756	0.008297585
1634	96.65	126.878	128.06656	0.007881587
1635	96.7	123.094	128.68513	0.008123873
1636	96.75	125.689	129.38325	0.007956146
1637	96.8	125.3	130.1731	0.007980846
1638	96.85	127.848	131.06951	0.007821788
1639	96.9	126.57	132.09077	0.007900766
1640	96.95	130.853	133.27743	0.007642163
1641	97	128.156	134.63182	0.00780299
1642	97.05	135.377	136.19176	0.007386779
1643	97.1	134.333	138.007	0.007444187
1644	97.15	134.695	140.13853	0.007424181
1645	97.2	138.709	142.6669	0.007209338
1646	97.25	142.163	145.70359	0.007034179
1647	97.3	144.613	149.41804	0.006915008
1648	97.35	150.788	154.09687	0.006631827
1649	97.4	158.151	160.27153	0.006323071
1650	97.45	165.185	168.96169	0.006053818
1651	97.5	186.707	182.05956	0.005355986
1652	97.55	205.36	202.77893	0.004869497
1653	97.6	247.677	235.89474	0.004037517
1654	97.65	306.617	287.29915	0.003261398
1655	97.7	399.87	362.42122	0.002500813
1656	97.75	522.458	463.44605	0.001914029
1657	97.8	655.856	585.66259	0.001524725
1658	97.85	779.216	712.9789	0.001283341
1659	97.9	874.667	813.69633	0.001143292
1660	97.95	863.641	847.84447	0.001157889
1661	98	776.214	798.44727	0.001288305
1662	98.05	631.589	690.29833	0.001583308
1663	98.1	491.014	563.42721	0.002036602
1664	98.15	392.339	446.19636	0.002548816
1665	98.2	310.74	351.96448	0.003218124
1666	98.25	261.72	283.71034	0.003820877
1667	98.3	224.266	238.33473	0.004458991
1668	98.35	192.521	210.16039	0.005194239
1669	98.4	187.305	193.51122	0.005338886
1670	98.45	183.055	183.96126	0.005462839
1671	98.5	174.635	178.67241	0.005726229
1672	98.55	176.335	176.09619	0.005671024
1673	98.6	177.602	175.53574	0.005630567
1674	98.65	176.902	176.87747	0.005652847
1675	98.7	177.008	180.52354	0.005649462
1676	98.75	192.794	187.50955	0.005186883
1677	98.8	200.348	199.70767	0.004991315
1678	98.85	223.973	219.93793	0.004464824
1679	98.9	266.486	251.60322	0.003752542
1680	98.95	313.743	297.76368	0.003187322
1681	99	380.685	359.50147	0.002626844
1682	99.05	468.462	433.8101	0.002134645
1683	99.1	531.724	510.98116	0.001880675
1684	99.15	590.243	572.33396	0.001694217
1685	99.2	590.914	595.00573	0.001692294
1686	99.25	541.357	569.94599	0.00184721
1687	99.3	481.206	511.93253	0.002078112
1688	99.35	423.652	444.56812	0.002360428
1689	99.4	363.818	385.34228	0.002748627
1690	99.45	339.484	343.97887	0.002945647
1691	99.5	340.806	325.63224	0.002934221
1692	99.55	358.947	334.03825	0.002785927
1693	99.6	401.932	373.73201	0.002487983
1694	99.65	487.581	450.96369	0.002050941
1695	99.7	607.232	571.67549	0.001646817
1696	99.75	773.026	737.66043	0.001293618
1697	99.8	992.611	940.99911	0.001007444
1698	99.85	1228.669	1156.94539	0.000813889
1699	99.9	1409.451	1337.38117	0.000709496
1700	99.95	1459.523	1422.84885	0.000685155
1701	100	1397.433	1388.84905	0.000715598
1702	100.05	1255.635	1271.10931	0.00079641
1703	100.1	1087.487	1123.96311	0.000919551
1704	100.15	927.87	977.82163	0.001077737
1705	100.2	799.517	836.71537	0.001250755
1706	100.25	661.279	698.66939	0.001512221
1707	100.3	542.431	570.17886	0.001843552
1708	100.35	428.349	460.36703	0.002334545
1709	100.4	347.27	373.17718	0.002879604
1710	100.45	274.82	307.72817	0.003638745
1711	100.5	236.249	260.8032	0.004232822
1712	100.55	206.801	228.34867	0.004835567
1713	100.6	193.238	206.33891	0.005174966
1714	100.65	171.851	191.35595	0.005818994
1715	100.7	164.622	180.86202	0.006074522
1716	100.75	154.974	173.18479	0.006452695
1717	100.8	153.21	167.3206	0.006526989
1718	100.85	149.172	162.68609	0.006703671
1719	100.9	143.778	158.95057	0.006955167
1720	100.95	142.884	155.91633	0.006998684
1721	101	139.263	153.48406	0.007180658
1722	101.05	142.593	151.53424	0.007012967
1723	101.1	143.466	150.01126	0.006970293
1724	101.15	141.957	148.88154	0.007044387
1725	101.2	145.569	148.12965	0.006869594
1726	101.25	137.151	147.75776	0.007291234
1727	101.3	140.92	147.79498	0.007096225
1728	101.35	143.956	148.30806	0.006946567
1729	101.4	147.983	149.44024	0.006757533
1730	101.45	148.498	151.47941	0.006734097
1731	101.5	149.307	154.97079	0.00669761
1732	101.55	158.017	160.86085	0.006328433
1733	101.6	172.051	170.60865	0.00581223
1734	101.65	196.206	186.13738	0.005096684
1735	101.7	215.347	209.47593	0.004643668
1736	101.75	247.338	242.01537	0.00404305
1737	101.8	284.45	283.44168	0.003515556
1738	101.85	320.586	330.40831	0.003119288
1739	101.9	364.971	374.92602	0.002739944
1740	101.95	390.484	403.96921	0.002560924
1741	102	374.246	405.31958	0.002672039
1742	102.05	340.705	378.47486	0.00293509
1743	102.1	305.021	335.12735	0.003278463
1744	102.15	268.846	288.56433	0.003719602
1745	102.2	229.353	247.34082	0.004360091
1746	102.25	207.191	215.33833	0.004826464
1747	102.3	187.693	193.30844	0.005327849
1748	102.35	174.58	180.179	0.005728033
1749	102.4	169.728	174.02501	0.00589178
1750	102.45	174.98	172.74875	0.005714939
1751	102.5	175.391	174.30263	0.005701547
1752	102.55	174.913	176.59265	0.005717128
1753	102.6	173.306	177.52542	0.005770141
1754	102.65	168.063	175.83517	0.00595015
1755	102.7	169.484	171.92002	0.005900262
1756	102.75	164.899	167.20238	0.006064318
1757	102.8	157.576	162.96298	0.006346144
1758	102.85	151.674	159.95197	0.006593088
1759	102.9	160.345	158.50533	0.006236552
1760	102.95	157.928	158.73006	0.006331999
1761	103	164.651	160.6802	0.006073452
1762	103.05	163.594	164.52276	0.006112694
1763	103.1	179.181	170.68258	0.005580949
1764	103.15	196.579	179.95894	0.005087013
1765	103.2	211.97	193.60978	0.004717649
1766	103.25	235.082	213.42764	0.004253835
1767	103.3	258.124	241.81152	0.003874107
1768	103.35	307.229	281.73288	0.003254901
1769	103.4	352.638	336.29235	0.002835769
1770	103.45	424.028	407.70694	0.002358335
1771	103.5	505.298	496.50514	0.00197903
1772	103.55	603.72	602.06356	0.001656397
1773	103.6	732.986	720.88949	0.001364283
1774	103.65	866.17	840.13878	0.001154508
1775	103.7	957.91	931.67153	0.001043939
1776	103.75	982.891	959.01358	0.001017407
1777	103.8	916.863	904.99698	0.001090675
1778	103.85	767.284	789.83427	0.001303298
1779	103.9	624.165	651.10955	0.00160214
1780	103.95	488.027	518.42009	0.002049067
1781	104	383.018	407.21462	0.002610843
1782	104.05	300.616	322.41775	0.003326503
1783	104.1	250.231	262.43407	0.003996307
1784	104.15	226.408	222.33492	0.004416805
1785	104.2	196	196.43509	0.005102041
1786	104.25	177.724	179.73095	0.005626702
1787	104.3	165.96	168.61731	0.006025548
1788	104.35	153.587	160.80596	0.006510968
1789	104.4	145.999	154.9757	0.006849362
1790	104.45	147.072	150.40971	0.006799391
1791	104.5	146.694	146.70967	0.006816911
1792	104.55	139.014	143.63693	0.00719352
1793	104.6	129.934	141.05038	0.007696215
1794	104.65	132.907	138.86003	0.007524058
1795	104.7	134.029	136.97673	0.007461072
1796	104.75	133.558	135.34884	0.007487384
1797	104.8	125.948	133.93309	0.007939785
1798	104.85	132.475	132.69515	0.007548594
1799	104.9	126.491	131.60641	0.007905701
1800	104.95	130.274	130.64422	0.007676129
1801	105	132.782	129.79019	0.007531141
1802	105.05	124.669	129.02908	0.00802124
1803	105.1	122.582	128.34826	0.008157805
1804	105.15	126.23	127.7372	0.007922047
1805	105.2	125.448	127.18708	0.00797143
1806	105.25	125.965	126.69048	0.007938713
1807	105.3	129.041	126.24107	0.007749475
1808	105.35	122.722	125.84018	0.008148498
1809	105.4	120.675	125.47238	0.008286721
1810	105.45	118.658	125.13671	0.008427582
1811	105.5	116.743	124.83039	0.008565824
1812	105.55	125.361	124.56794	0.007976963
1813	105.6	120.195	124.31912	0.008319814
1814	105.65	123.343	124.08922	0.008107473
1815	105.7	123.795	123.87807	0.008077871
1816	105.75	122.342	123.68462	0.008173808
1817	105.8	122.87	123.51214	0.008138683
1818	105.85	118.91	123.36058	0.008409722
1819	105.9	122.709	123.22317	0.008149361
1820	105.95	119.752	123.09382	0.008350591
1821	106	115.536	122.9886	0.008655311
1822	106.05	124.202	122.89557	0.0080514
1823	106.1	121.375	122.81694	0.008238929
1824	106.15	118.785	122.73982	0.008418571
1825	106.2	122.376	122.66857	0.008171537
1826	106.25	120.973	122.60489	0.008266307
1827	106.3	122.038	122.50399	0.008194169
1828	106.35	124.915	122.45675	0.008005444
1829	106.4	118.797	122.41768	0.008417721
1830	106.45	122.849	122.38688	0.008140074
1831	106.5	130.824	122.36442	0.007643857
1832	106.55	123.888	122.35036	0.008071807
1833	106.6	126.208	122.34471	0.007923428
1834	106.65	128.237	122.34751	0.007798061
1835	106.7	122.283	122.35885	0.008177752
1836	106.75	122.894	122.37884	0.008137094
1837	106.8	125.055	122.4077	0.007996482
1838	106.85	124.036	122.44568	0.008062175
1839	106.9	124.505	122.49311	0.008031806
1840	106.95	125.302	122.55039	0.007980719
1841	107	124.348	122.61798	0.008041947
1842	107.05	117.2	122.69644	0.008532423
1843	107.1	128.217	122.78644	0.007799278
1844	107.15	128.406	122.88874	0.007787798
1845	107.2	116.748	123.00422	0.008565457
1846	107.25	117.786	123.1339	0.008489973
1847	107.3	125.384	123.27896	0.007975499
1848	107.35	124.754	123.44078	0.008015775
1849	107.4	119.01	123.62092	0.008402655
1850	107.45	126.43	123.8212	0.007909515
1851	107.5	124.841	124.04375	0.008010189
1852	107.55	124.468	124.29101	0.008034194
1853	107.6	127.178	124.56584	0.007862995
1854	107.65	129.395	124.87158	0.007728274
1855	107.7	127.373	125.21215	0.007850957
1856	107.75	121.157	125.59216	0.008253753
1857	107.8	128.699	126.01707	0.007770068
1858	107.85	129.059	126.49338	0.007748394
1859	107.9	126.568	127.02886	0.007900891
1860	107.95	127.918	127.63284	0.007817508
1861	108	131.196	128.31663	0.007622184
1862	108.05	131.028	129.09402	0.007631957
1863	108.1	136.256	129.98194	0.007339126
1864	108.15	129.902	131.00134	0.007698111
1865	108.2	132.094	132.17844	0.007570367
1866	108.25	130.553	133.54645	0.007659724
1867	108.3	135.883	135.14833	0.007359272
1868	108.35	143.138	137.04161	0.006986265
1869	108.4	141.096	139.30786	0.007087373
1870	108.45	150.411	142.07236	0.00664845
1871	108.5	167.165	145.54419	0.005982113
1872	108.55	174.672	150.09231	0.005725016
1873	108.6	176.263	156.37349	0.00567334
1874	108.65	189.784	165.51363	0.005269148
1875	108.7	212.593	179.30273	0.004703824
1876	108.75	239.282	200.29729	0.004179169
1877	108.8	269.989	231.66143	0.003703855
1878	108.85	310.9	276.57983	0.003216468
1879	108.9	368.837	337.18362	0.002711225
1880	108.95	429.725	413.07329	0.00232707
1881	109	509.098	499.49001	0.001964258
1882	109.05	581.489	585.07177	0.001719723
1883	109.1	615.851	650.58139	0.001623769
1884	109.15	632.74	674.36721	0.001580428
1885	109.2	610.974	647.10458	0.001636731
1886	109.25	552.805	579.94974	0.001808956
1887	109.3	479.26	494.35645	0.00208655
1888	109.35	407.526	408.70588	0.002453831
1889	109.4	352.275	333.85803	0.002838691
1890	109.45	293.429	274.31278	0.003407979
1891	109.5	243.293	230.31307	0.00411027
1892	109.55	215.54	199.65578	0.00463951
1893	109.6	198.571	179.15808	0.005035982
1894	109.65	190.253	165.701	0.005256159
1895	109.7	172.599	156.72278	0.005793776
1896	109.75	168.061	150.60208	0.00595022
1897	109.8	159.281	146.18198	0.006278213
1898	109.85	155.299	142.8227	0.006439191
1899	109.9	146.378	140.16376	0.006831628
1900	109.95	140.883	138.00014	0.007098088
1901	110	140.43	136.20865	0.007120986
1902	110.05	139.707	134.70902	0.007157837
1903	110.1	141.409	133.44473	0.007071686
1904	110.15	129.808	132.35863	0.007703685
1905	110.2	133.282	131.44567	0.007502889
1906	110.25	132.778	130.67099	0.007531368
1907	110.3	133.851	130.01153	0.007470994
1908	110.35	131.722	129.45114	0.007591746
1909	110.4	129.231	128.97688	0.007738081
1910	110.45	125.389	128.57834	0.007975181
1911	110.5	124.854	128.24694	0.008009355
1912	110.55	126.594	127.97102	0.007899269
1913	110.6	128.993	127.75603	0.007752359
1914	110.65	129.162	127.59244	0.007742215
1915	110.7	126.849	127.47726	0.007883389
1916	110.75	124.91	127.40847	0.008005764
1917	110.8	125.606	127.38494	0.007961403
1918	110.85	122.781	127.40638	0.008144583
1919	110.9	129.191	127.47344	0.007740477
1920	110.95	126.686	127.58766	0.007893532
1921	111	122.985	127.75163	0.008131073
1922	111.05	122.103	127.96914	0.008189807
1923	111.1	124.002	128.24537	0.008064386
1924	111.15	127.116	128.58723	0.00786683
1925	111.2	120.816	129.00385	0.008277049
1926	111.25	125.427	129.50734	0.007972765
1927	111.3	130.051	130.11419	0.007689291
1928	111.35	131.479	130.84801	0.007605777
1929	111.4	128.683	131.74498	0.007771034
1930	111.45	121.167	132.86478	0.008253072
1931	111.5	136.298	134.31068	0.007336865
1932	111.55	133.568	136.26248	0.007486823
1933	111.6	136.047	139.02271	0.007350401
1934	111.65	137.254	143.06692	0.007285762
1935	111.7	141.245	149.0737	0.007079897
1936	111.75	151.184	157.89535	0.006614457
1937	111.8	164.263	170.42807	0.006087798
1938	111.85	168.566	187.36174	0.005932394
1939	111.9	194.385	208.82475	0.00514443
1940	111.95	225.203	233.94275	0.004440438
1941	112	273.696	260.29033	0.003653689
1942	112.05	313.829	283.36613	0.003186449
1943	112.1	329.3	297.10295	0.003036745
1944	112.15	327.818	296.88357	0.003050473
1945	112.2	307.732	283.11179	0.003249581
1946	112.25	259.505	260.7153	0.00385349
1947	112.3	225.536	235.51012	0.004433882
1948	112.35	203.056	211.75171	0.00492475
1949	112.4	185.507	191.75624	0.005390632
1950	112.45	172.055	176.35006	0.005812095
1951	112.5	157.971	165.38814	0.006330276
1952	112.55	159.811	158.19695	0.006257392
1953	112.6	155.018	153.93132	0.006450864
1954	112.65	155.401	151.82429	0.006434965
1955	112.7	152.676	151.32266	0.006549818
1956	112.75	154.18	152.13227	0.006485926
1957	112.8	153.55	154.20823	0.006512537
1958	112.85	163.316	157.71811	0.006123099
1959	112.9	164.99	162.98567	0.006060973
1960	112.95	168.236	170.41034	0.005944031
1961	113	175.807	180.3607	0.005688056
1962	113.05	199.314	193.05388	0.005017209
1963	113.1	209.405	208.43582	0.004775435
1964	113.15	229.048	226.0599	0.004365897
1965	113.2	255.792	245.00237	0.003909426
1966	113.25	287.103	264.26083	0.003483071
1967	113.3	299.634	284.08602	0.003337405
1968	113.35	328.214	307.3495	0.003046793
1969	113.4	355.944	338.99934	0.002809431
1970	113.45	393.173	383.7612	0.00254341
1971	113.5	445.006	443.96589	0.002247161
1972	113.55	501.692	518.05663	0.001993255
1973	113.6	575.614	599.05418	0.001737275
1974	113.65	647.586	673.08308	0.001544196
1975	113.7	679.811	720.60847	0.001470997
1976	113.75	699.078	724.97254	0.001430456
1977	113.8	655.476	684.09191	0.001525609
1978	113.85	604.185	611.38397	0.001655122
1979	113.9	535.206	525.48444	0.001868439
1980	113.95	463.502	441.44733	0.002157488
1981	114	398.619	368.28651	0.002508661
1982	114.05	343.022	309.90978	0.002915265
1983	114.1	312.078	266.72135	0.003204327
1984	114.15	285.964	237.09132	0.003496944
1985	114.2	264.701	218.61651	0.003777847
1986	114.25	247.455	209.02759	0.004041139
1987	114.3	243.153	206.85318	0.004112637
1988	114.35	250.953	211.69223	0.00398481
1989	114.4	262.882	224.1609	0.003803988
1990	114.45	279.907	245.58749	0.003572615
1991	114.5	302.134	277.46237	0.00330979
1992	114.55	333.332	320.68039	0.003000012
1993	114.6	379.227	374.6334	0.002636943
1994	114.65	434.199	436.15193	0.002303091
1995	114.7	515.573	498.24879	0.00193959
1996	114.75	577.525	549.3317	0.001731527
1997	114.8	622.087	575.60128	0.001607492
1998	114.85	627.216	568.71005	0.001594347
1999	114.9	589.243	532.06441	0.001697093
2000	114.95	513.246	477.90128	0.001948383
2001	115	445.542	419.59067	0.002244457
2002	115.05	376.029	366.91825	0.002659369
2003	115.1	334.56	325.28345	0.002989
2004	115.15	299.754	296.42997	0.003336069
2005	115.2	285.294	279.31059	0.003505156
2006	115.25	274.247	270.76741	0.003646348
2007	115.3	276.402	266.1787	0.003617919
2008	115.35	278.376	260.6473	0.003592264
2009	115.4	262.829	250.97323	0.003804755
2010	115.45	250.056	236.91657	0.003999104
2011	115.5	233.177	220.35292	0.004288588
2012	115.55	202.271	203.5516	0.004943862
2013	115.6	181.244	188.18397	0.005517424
2014	115.65	166.538	175.14996	0.006004636
2015	115.7	159.235	164.72921	0.006280026
2016	115.75	156.592	156.78056	0.006386022
2017	115.8	146.584	150.9265	0.006822027
2018	115.85	141.589	146.69819	0.007062696
2019	115.9	143.672	143.65099	0.006960298
2020	115.95	138.202	141.4232	0.007235785
2021	116	132.216	139.7506	0.007563381
2022	116.05	136.251	138.45557	0.007339396
2023	116.1	134.711	137.42536	0.007423299
2024	116.15	134.275	136.59046	0.007447403
2025	116.2	137.293	135.90786	0.007283693
2026	116.25	133.411	135.326	0.007495634
2027	116.3	131.729	134.87303	0.007591343
2028	116.35	128.583	134.51397	0.007777078
2029	116.4	129.811	134.23767	0.007703507
2030	116.45	127.306	134.03664	0.007855089
2031	116.5	128.792	133.90524	0.007764457
2032	116.55	130.545	133.83932	0.007660194
2033	116.6	131.173	133.83603	0.00762352
2034	116.65	131.054	133.8936	0.007630442
2035	116.7	135.325	134.01133	0.007389618
2036	116.75	131.54	134.18947	0.00760225
2037	116.8	130.743	134.42924	0.007648593
2038	116.85	133.658	134.73285	0.007481782
2039	116.9	134.642	135.10358	0.007427103
2040	116.95	128.404	135.54581	0.007787919
2041	117	129.405	136.06527	0.007727677
2042	117.05	140.201	136.66915	0.007132617
2043	117.1	129.676	137.30912	0.007711527
2044	117.15	132.482	138.09953	0.007548195
2045	117.2	124.86	139.0196	0.00800897
2046	117.25	130.94	140.07452	0.007637086
2047	117.3	129.448	141.28512	0.00772511
2048	117.35	132.881	142.67754	0.00752553
2049	117.4	142.726	144.2668	0.007006432
2050	117.45	146.467	146.13291	0.006827476
2051	117.5	145.287	148.32195	0.006882928
2052	117.55	144.191	150.92467	0.006935246
2053	117.6	146.148	154.08697	0.006842379
2054	117.65	155.003	158.04923	0.006451488
2055	117.7	165.307	163.21057	0.006049351
2056	117.75	181.197	170.21729	0.005518855
2057	117.8	182.35	180.06338	0.005483959
2058	117.85	191.404	194.16832	0.005224551
2059	117.9	210.469	214.37365	0.004751294
2060	117.95	245.139	242.78699	0.004079318
2061	118	279.994	281.42005	0.003571505
2062	118.05	312.105	331.61426	0.00320405
2063	118.1	352.146	393.29403	0.002839731
2064	118.15	429.62	464.06413	0.002327638
2065	118.2	509.313	538.09957	0.001963429
2066	118.25	570.628	605.1027	0.001752455
2067	118.3	612.695	651.07393	0.001632133
2068	118.35	632.701	663.60704	0.001580525
2069	118.4	621.134	639.5689	0.001609959
2070	118.45	556.378	586.9514	0.001797339
2071	118.5	489.472	519.09661	0.002043018
2072	118.55	441.515	448.29994	0.002264929
2073	118.6	374.386	383.03608	0.00267104
2074	118.65	326.44	327.90336	0.00306335
2075	118.7	289.575	284.51185	0.003453337
2076	118.75	264.262	252.46264	0.003784123
2077	118.8	242.818	230.21178	0.004118311
2078	118.85	230.061	215.778	0.004346673
2079	118.9	218.195	207.25324	0.004583056
2080	118.95	223.271	203.1054	0.004478862
2081	119	223.843	202.31038	0.004467417
2082	119.05	220.444	204.38536	0.004536299
2083	119.1	223.634	209.39768	0.004471592
2084	119.15	234.719	217.99754	0.004260414
2085	119.2	253.966	231.48101	0.003937535
2086	119.25	275.124	251.84177	0.003634725
2087	119.3	305.203	281.72851	0.003276508
2088	119.35	347.838	324.20641	0.002874902
2089	119.4	393.43	382.24421	0.002541748
2090	119.45	454.068	457.9	0.002202313
2091	119.5	530.583	551.33241	0.001884719
2092	119.55	626.125	659.49518	0.001597125
2093	119.6	726.057	774.55078	0.001377302
2094	119.65	827.264	882.35554	0.001208804
2095	119.7	899.463	962.94886	0.001111774
2096	119.75	953.785	996.79454	0.001048454
2097	119.8	952.169	975.72553	0.001050234
2098	119.85	915.846	908.09402	0.001091887
2099	119.9	827.931	812.65863	0.00120783
2100	119.95	740.487	709.14481	0.001350463
2101	120	663.139	613.00336	0.001507979
2102	120.05	579.915	534.49744	0.001724391
2103	120.1	532.883	479.71258	0.001876585
2104	120.15	497.985	451.89946	0.002008093
2105	120.2	499.474	452.53168	0.002002106
2106	120.25	514.917	481.89432	0.001942061
2107	120.3	557.528	539.11117	0.001793632
2108	120.35	613.428	621.6492	0.001630183
2109	120.4	693.832	724.32617	0.001441271
2110	120.45	784.204	837.80065	0.001275178
2111	120.5	877.178	946.88528	0.001140019
2112	120.55	960.608	1030.55925	0.001041007
2113	120.6	1014.54	1067.51487	0.000985668
2114	120.65	1015.187	1047.02016	0.00098504
2115	120.7	982.821	975.2634	0.001017479
2116	120.75	875.243	870.21113	0.00114254
2117	120.8	769.945	751.72778	0.001298794
2118	120.85	651.805	635.3507	0.001534201
2119	120.9	544.703	530.78423	0.001835863
2120	120.95	470.568	442.78118	0.002125091
2121	121	399.306	372.54291	0.002504345
2122	121.05	337.005	318.9365	0.002967315
2123	121.1	303.576	279.50232	0.003294068
2124	121.15	270.583	251.29176	0.003695724
2125	121.2	240.127	231.47962	0.004164463
2126	121.25	224.46	217.71064	0.004455137
2127	121.3	210.66	208.22773	0.004746986
2128	121.35	203.649	201.83957	0.00491041
2129	121.4	193.135	197.82864	0.005177725
2130	121.45	194.258	195.86474	0.005147793
2131	121.5	196.801	195.93165	0.005081275
2132	121.55	189.862	198.26427	0.005266983
2133	121.6	190.189	203.3139	0.005257928
2134	121.65	211.183	211.73803	0.00473523
2135	121.7	218.722	224.13587	0.004572014
2136	121.75	234.027	241.00747	0.004273011
2137	121.8	254.776	262.47072	0.003925016
2138	121.85	281.907	288.03871	0.003547269
2139	121.9	302.157	316.31159	0.003309538
2140	121.95	342.223	344.63199	0.002922071
2141	122	373.263	368.95304	0.002679076
2142	122.05	383.017	384.61336	0.00261085
2143	122.1	397.83	388.40639	0.002513636
2144	122.15	381.787	380.53103	0.002619262
2145	122.2	371.044	364.43352	0.002695098
2146	122.25	347.626	344.99215	0.002876655
2147	122.3	333.249	326.93798	0.003000759
2148	122.35	311.109	314.2644	0.003214308
2149	122.4	308.363	310.30209	0.003242931
2150	122.45	322.803	318.00607	0.003097865
2151	122.5	343.217	340.17336	0.002913609
2152	122.55	381.406	379.45445	0.002621878
2153	122.6	440.594	438.04038	0.002269663
2154	122.65	508.782	517.12141	0.001965478
2155	122.7	606.207	616.04261	0.001649602
2156	122.75	714.001	731.21822	0.001400558
2157	122.8	865.583	854.7753	0.001155291
2158	122.85	1018.071	973.21169	0.00098225
2159	122.9	1118.284	1067.62583	0.000894227
2160	122.95	1188.909	1118.27011	0.000841107
2161	123	1194.497	1113.20211	0.000837172
2162	123.05	1108.13	1054.46073	0.000902421
2163	123.1	991.767	956.0643	0.001008301
2164	123.15	854.198	836.65585	0.001170689
2165	123.2	713.286	713.06561	0.001401962
2166	123.25	595.063	597.38916	0.001680494
2167	123.3	493.686	496.70675	0.002025579
2168	123.35	412.357	413.96198	0.002425083
2169	123.4	352.106	349.12721	0.002840054
2170	123.45	313.694	300.31674	0.00318782
2171	123.5	281.349	264.73157	0.003554304
2172	123.55	254.498	239.38002	0.003929304
2173	123.6	232.072	221.5474	0.004309008
2174	123.65	214.512	209.02972	0.004661744
2175	123.7	207.869	200.18516	0.004810722
2176	123.75	200.24	193.87328	0.004994007
2177	123.8	193.289	189.34624	0.0051736
2178	123.85	182.232	186.13639	0.00548751
2179	123.9	186.795	183.96344	0.005353462
2180	123.95	181.001	182.66845	0.005524831
2181	124	184.515	182.17255	0.005419614
2182	124.05	180.26	182.45568	0.005547542
2183	124.1	188.286	183.55078	0.005311069
2184	124.15	187.241	185.55153	0.005340711
2185	124.2	188.64	188.63372	0.005301103
2186	124.25	199.989	193.0927	0.005000275
2187	124.3	203.462	199.39895	0.004914923
2188	124.35	213.306	208.27184	0.004688101
2189	124.4	233.483	220.76824	0.004282967
2190	124.45	249.745	238.34779	0.004004084
2191	124.5	272.87	262.91344	0.003664749
2192	124.55	311.882	296.74939	0.003206341
2193	124.6	351.072	342.31616	0.002848419
2194	124.65	399.015	401.86422	0.002506171
2195	124.7	463.995	476.88257	0.002155196
2196	124.75	552.502	567.45158	0.001809948
2197	124.8	642.772	671.58596	0.001555762
2198	124.85	756.204	784.4391	0.001322394
2199	124.9	884.588	897.21849	0.00113047
2200	124.95	1007.068	996.48162	0.000992982
2201	125	1089.626	1065.89878	0.000917746
2202	125.05	1155.238	1091.93926	0.000865622
2203	125.1	1162.537	1070.21495	0.000860188
2204	125.15	1065.633	1006.67542	0.000938409
2205	125.2	956.94	913.53735	0.001044998
2206	125.25	821.857	804.60307	0.001216757
2207	125.3	692.507	692.287	0.001444029
2208	125.35	577.043	586.06118	0.001732973
2209	125.4	486.884	491.95583	0.002053877
2210	125.45	408.86	412.85088	0.002445825
2211	125.5	346.017	349.17917	0.002890031
2212	125.55	293.83	299.73632	0.003403328
2213	125.6	262.045	262.42491	0.003816138
2214	125.65	233.081	234.84465	0.004290354
2215	125.7	212.549	214.69681	0.004704797
2216	125.75	195.739	200.01281	0.005108844
2217	125.8	179.925	189.2426	0.005557871
2218	125.85	180.258	181.24884	0.005547604
2219	125.9	171.698	175.25087	0.00582418
2220	125.95	164.246	170.75183	0.006088428
2221	126	164.392	167.46933	0.006083021
2222	126.05	165.077	165.27769	0.006057779
2223	126.1	156.934	164.16151	0.006372105
2224	126.15	161.065	164.17549	0.006208674
2225	126.2	166.163	165.40477	0.006018187
2226	126.25	169.871	167.92212	0.00588682
2227	126.3	176.748	171.74044	0.005657773
2228	126.35	172.337	176.76083	0.005802584
2229	126.4	179.082	182.71408	0.005584034
2230	126.45	185.115	189.09242	0.005402047
2231	126.5	199.427	195.0902	0.005014366
2232	126.55	205.729	199.63709	0.004860763
2233	126.6	211.128	201.6549	0.004736463
2234	126.65	206.695	200.50969	0.004838046
2235	126.7	205.016	196.3198	0.004877668
2236	126.75	198.101	189.83761	0.00504793
2237	126.8	190.365	182.06713	0.005253066
2238	126.85	180.602	173.93874	0.005537037
2239	126.9	166.796	166.15663	0.005995348
2240	126.95	157.853	159.17096	0.006335008
2241	127	155.952	153.20935	0.006412229
2242	127.05	152.497	148.32821	0.006557506
2243	127.1	145.584	144.46615	0.006868887
2244	127.15	141.519	141.49232	0.007066189
2245	127.2	134.724	139.24639	0.007422582
2246	127.25	136.651	137.56812	0.007317912
2247	127.3	140.472	136.31584	0.007118856
2248	127.35	136.596	135.37499	0.007320859
2249	127.4	137.752	134.65926	0.007259423
2250	127.45	128.43	134.10723	0.007786343
2251	127.5	131.829	133.67709	0.007585584
2252	127.55	142.427	133.34127	0.007021141
2253	127.6	144.208	133.08195	0.006934428
2254	127.65	133.614	132.88761	0.007484246
2255	127.7	137.221	132.75079	0.007287514
2256	127.75	139.4	132.66658	0.007173601
2257	127.8	134.316	132.63178	0.007445129
2258	127.85	137.759	132.64433	0.007259054
2259	127.9	139.009	132.7031	0.007193779
2260	127.95	136.233	132.80764	0.007340365
2261	128	132.643	132.93404	0.007539033
2262	128.05	135.05	133.12359	0.007404665
2263	128.1	137.07	133.36813	0.007295542
2264	128.15	134.526	133.66398	0.007433507
2265	128.2	135.068	134.01261	0.007403678
2266	128.25	133.712	134.41728	0.00747876
2267	128.3	137.218	134.882	0.007287674
2268	128.35	134.882	135.41158	0.007413888
2269	128.4	137.914	136.01177	0.007250895
2270	128.45	137.26	136.68936	0.007285444
2271	128.5	145.558	137.45241	0.006870114
2272	128.55	145.427	138.3104	0.006876302
2273	128.6	138.932	139.27455	0.007197766
2274	128.65	140.669	140.35817	0.007108887
2275	128.7	136.6	141.57709	0.007320644
2276	128.75	139.085	142.95032	0.007189848
2277	128.8	140.947	144.50098	0.007094865
2278	128.85	142.551	146.25773	0.007015033
2279	128.9	145.914	148.25715	0.006853352
2280	128.95	152.237	150.54774	0.006568705
2281	129	157.953	153.1966	0.006330997
2282	129.05	158.251	156.30055	0.006319075
2283	129.1	159.972	160.00369	0.006251094
2284	129.15	166.891	164.52378	0.005991935
2285	129.2	173.079	170.18891	0.005777708
2286	129.25	192.443	177.4841	0.005196344
2287	129.3	193.832	187.10315	0.005159107
2288	129.35	218.18	199.99519	0.004583372
2289	129.4	229.542	217.38856	0.004356501
2290	129.45	262.89	240.76918	0.003803872
2291	129.5	283.761	271.78974	0.003524092
2292	129.55	329.042	312.09286	0.003039126
2293	129.6	372.485	363.04517	0.002684672
2294	129.65	423.168	425.39446	0.002363128
2295	129.7	493.115	498.8667	0.002027925
2296	129.75	560.305	581.70226	0.001784742
2297	129.8	641.235	670.10891	0.001559491
2298	129.85	727.073	757.67877	0.001375378
2299	129.9	809.409	835.1571	0.001235469
2300	129.95	877.604	891.50195	0.001139466
2301	130	895.51	916.99456	0.001116682
2302	130.05	877.806	907.20757	0.001139204
2303	130.1	821.421	864.80608	0.001217403
2304	130.15	771.915	797.82115	0.001295479
2305	130.2	681.453	716.27585	0.001467453
2306	130.25	599.676	629.50183	0.001667567
2307	130.3	516.8	544.82927	0.001934985
2308	130.35	464.759	467.26179	0.002151653
2309	130.4	399.002	399.65953	0.002506253
2310	130.45	357.343	343.13874	0.002798432
2311	130.5	305.482	297.53179	0.003273515
2312	130.55	281.072	261.82958	0.003557807
2313	130.6	257.695	234.56805	0.003880556
2314	130.65	241.533	214.13671	0.004140221
2315	130.7	214.793	198.99759	0.004655645
2316	130.75	205.361	187.81566	0.004869474
2317	130.8	191.371	179.5138	0.005225452
2318	130.85	186.441	173.27309	0.005363627
2319	130.9	189.765	168.50065	0.005269676
2320	130.95	183.255	164.78379	0.005456877
2321	131	173.069	161.84359	0.005778042
2322	131.05	171.207	159.49497	0.005840883
2323	131.1	171.021	157.61594	0.005847235
2324	131.15	170.125	156.12584	0.005878031
2325	131.2	167.715	154.97085	0.005962496
2326	131.25	166.997	154.11476	0.005988132
2327	131.3	160.636	153.53361	0.006225255
2328	131.35	161.222	153.21263	0.006202627
2329	131.4	157.09	153.14467	0.006365778
2330	131.45	163.281	153.32994	0.006124411
2331	131.5	158.552	153.77665	0.006307079
2332	131.55	165.503	154.50306	0.006042187
2333	131.6	167.148	155.5411	0.005982722
2334	131.65	160.703	156.94236	0.006222659
2335	131.7	171.675	158.78006	0.00582496
2336	131.75	171.199	161.19228	0.005841156
2337	131.8	167.616	164.35736	0.005966018
2338	131.85	181.553	168.53876	0.005508033
2339	131.9	183.844	174.10328	0.005439394
2340	131.95	197.853	181.5379	0.005054257
2341	132	204.855	191.45557	0.004881502
2342	132.05	221.743	204.58121	0.004509725
2343	132.1	238.902	221.70958	0.004185817
2344	132.15	253.473	243.63012	0.003945193
2345	132.2	276.829	271.01741	0.003612338
2346	132.25	315.292	304.29526	0.003171663
2347	132.3	346.446	343.47953	0.002886453
2348	132.35	383.176	388.00053	0.002609767
2349	132.4	433.045	436.49594	0.002309229
2350	132.45	489.521	486.57842	0.002042813
2351	132.5	529.545	534.67498	0.001888414
2352	132.55	563.728	576.22893	0.001773905
2353	132.6	612.679	606.63881	0.001632176
2354	132.65	635.867	622.84934	0.001572656
2355	132.7	634.189	624.65204	0.001576817
2356	132.75	623.149	614.68332	0.001604753
2357	132.8	584.321	597.21902	0.001711388
2358	132.85	568.277	576.70999	0.001759705
2359	132.9	559.804	556.73434	0.00178634
2360	132.95	536.333	539.4398	0.001864513
2361	133	528.721	525.31662	0.001891357
2362	133.05	525.186	513.23617	0.001904087
2363	133.1	528.222	500.84018	0.001893143
2364	133.15	512.283	485.46094	0.001952046
2365	133.2	495.48	465.23987	0.002018245
2366	133.25	465.568	439.8026	0.002147914
2367	133.3	422.167	410.16294	0.002368731
2368	133.35	371.337	378.1007	0.002692972
2369	133.4	333.396	345.52745	0.002999436
2370	133.45	300.273	314.09831	0.003330303
2371	133.5	271.286	285.05035	0.003686147
2372	133.55	245.14	259.1753	0.004079302
2373	133.6	223.243	236.86084	0.004479424
2374	133.65	201.445	218.16425	0.004964134
2375	133.7	192.584	202.87447	0.005192539
2376	133.75	185.703	190.67773	0.005384943
2377	133.8	175.309	181.13168	0.005704214
2378	133.85	168.591	173.77267	0.005931515
2379	133.9	166.064	168.16195	0.006021775
2380	133.95	164.593	163.91479	0.006075593
2381	134	161.697	160.71289	0.006184407
2382	134.05	159.646	158.30701	0.006263859
2383	134.1	154.7	156.50825	0.006464124
2384	134.15	145.674	155.18069	0.006864643
2385	134.2	149.912	154.23083	0.00667058
2386	134.25	151.621	153.59675	0.006595392
2387	134.3	147.507	153.24042	0.006779339
2388	134.35	146.73	153.14232	0.006815239
2389	134.4	143.083	153.29863	0.00698895
2390	134.45	148.684	153.72084	0.006725673
2391	134.5	152.4	154.43754	0.00656168
2392	134.55	148.481	155.49832	0.006734868
2393	134.6	155.166	156.97935	0.006444711
2394	134.65	154.402	158.99	0.0064766
2395	134.7	153.192	161.6794	0.006527756
2396	134.75	158.856	165.24113	0.006295009
2397	134.8	161.557	169.91374	0.006189766
2398	134.85	167.357	175.97459	0.005975251
2399	134.9	170.034	183.72447	0.005881177
2400	134.95	180.867	193.46187	0.005528925
2401	135	189.847	205.44681	0.0052674
2402	135.05	212.537	219.85573	0.004705063
2403	135.1	229.613	236.71201	0.004355154
2404	135.15	249.139	255.89641	0.004013824
2405	135.2	264.225	276.9967	0.003784653
2406	135.25	297.077	299.28122	0.003366131
2407	135.3	325.752	321.63102	0.00306982
2408	135.35	354.481	342.54118	0.002821026
2409	135.4	369.674	360.29438	0.002705086
2410	135.45	397.012	373.38949	0.002518816
2411	135.5	399.201	381.109	0.002505004
2412	135.55	402.869	383.89622	0.002482196
2413	135.6	391.581	383.29517	0.00255375
2414	135.65	375.507	381.54298	0.002663066
2415	135.7	370.235	381.09287	0.002700987
2416	135.75	365.854	384.24745	0.002733331
2417	135.8	371.26	392.91976	0.00269353
2418	135.85	378.114	408.48306	0.002644705
2419	135.9	395.692	431.65701	0.002527218
2420	135.95	418.58	462.40404	0.00238903
2421	136	435.127	499.83617	0.00229818
2422	136.05	484.794	542.09583	0.002062732
2423	136.1	520.877	586.23123	0.001919839
2424	136.15	560.185	628.16351	0.001785125
2425	136.2	597.584	662.97176	0.001673405
2426	136.25	616.463	685.73437	0.001622157
2427	136.3	637.911	692.82876	0.001567617
2428	136.35	653.445	683.04648	0.001530351
2429	136.4	638.761	657.81044	0.001565531
2430	136.45	603.36	620.44733	0.001657385
2431	136.5	554.222	575.10406	0.001804331
2432	136.55	501.98	525.86769	0.001992111
2433	136.6	455.636	476.26219	0.002194734
2434	136.65	414.224	429.04234	0.002414153
2435	136.7	373.376	386.165	0.002678265
2436	136.75	342.794	348.85922	0.002917204
2437	136.8	309.663	317.74832	0.003229317
2438	136.85	287.077	292.99234	0.003483386
2439	136.9	270.188	274.42918	0.003701127
2440	136.95	257.46	261.70039	0.003884099
2441	137	253.313	254.3535	0.003947685
2442	137.05	245.011	251.91632	0.004081449
2443	137.1	246.522	253.94259	0.004056433
2444	137.15	256.387	260.03101	0.003900354
2445	137.2	258.675	269.82176	0.003865855
2446	137.25	268.049	282.97392	0.003730661
2447	137.3	287.091	299.12648	0.003483216
2448	137.35	307.365	317.85296	0.003253461
2449	137.4	324.912	338.60315	0.003077756
2450	137.45	350.379	360.70342	0.002854052
2451	137.5	365.929	383.44788	0.002732771
2452	137.55	389.898	406.28854	0.002564773
2453	137.6	412.186	429.0445	0.002426089
2454	137.65	439.369	451.98088	0.002275991
2455	137.7	444.771	475.67776	0.002248348
2456	137.75	461.494	500.74245	0.002166875
2457	137.8	480.527	527.4814	0.002081049
2458	137.85	483.102	555.61283	0.002069956
2459	137.9	524.756	584.05207	0.001905648
2460	137.95	564.481	610.81264	0.001771539
2461	138	612.264	633.13331	0.001633282
2462	138.05	636.749	647.96812	0.001570478
2463	138.1	667.085	652.82039	0.001499059
2464	138.15	673.515	646.58621	0.001484748
2465	138.2	679.222	629.89507	0.001472273
2466	138.25	650.44	604.98509	0.001537421
2467	138.3	606.396	574.91382	0.001649087
2468	138.35	551.569	542.97097	0.00181301
2469	138.4	511.807	512.25648	0.001953862
2470	138.45	474.545	485.45323	0.002107282
2471	138.5	437.621	464.72396	0.002285082
2472	138.55	426.662	451.67298	0.002343776
2473	138.6	401.357	447.33959	0.002491547
2474	138.65	396.763	452.20474	0.002520396
2475	138.7	416.166	466.19914	0.002402887
2476	138.75	430.111	488.70307	0.002324981
2477	138.8	449.999	518.52878	0.002222227
2478	138.85	481.842	553.87905	0.002075369
2479	138.9	525.831	592.29277	0.001901752
2480	138.95	575.911	630.63583	0.001736379
2481	139	599.919	665.26548	0.001666892
2482	139.05	644.538	692.51218	0.001551499
2483	139.1	679.615	709.46612	0.001471421
2484	139.15	706.291	714.78946	0.001415847
2485	139.2	711.188	709.07061	0.001406098
2486	139.25	700.515	694.54756	0.001427521
2487	139.3	666.806	674.41882	0.001499687
2488	139.35	633.955	652.11773	0.001577399
2489	139.4	606.891	630.77403	0.001647742
2490	139.45	595.354	612.88829	0.001679673
2491	139.5	573.831	600.1564	0.001742673
2492	139.55	561.67	593.38009	0.001780405
2493	139.6	553.38	592.4243	0.001807077
2494	139.65	552.537	596.20657	0.001809834
2495	139.7	572.751	602.73183	0.001745959
2496	139.75	583.552	609.28053	0.001713643
2497	139.8	598.847	612.80719	0.001669876
2498	139.85	630.2	610.51266	0.001586798
2499	139.9	617.475	600.54462	0.001619499
2500	139.95	600.992	582.38486	0.001663916
2501	140	589.156	556.79322	0.001697343
2502	140.05	553.144	525.40519	0.001807848
2503	140.1	514.182	490.24687	0.001944837
2504	140.15	467.538	453.35531	0.002138864
2505	140.2	421.022	416.55116	0.002375173
2506	140.25	381.12	381.33041	0.002623846
2507	140.3	347.924	348.83107	0.002874191
2508	140.35	314.546	319.84588	0.003179185
2509	140.4	283.828	294.86356	0.003523261
2510	140.45	260.07	274.1261	0.003845119
2511	140.5	235.344	257.69175	0.004249099
2512	140.55	225.158	245.49542	0.004441326
2513	140.6	223.874	237.40062	0.004466798
2514	140.65	208.107	233.23881	0.00480522
2515	140.7	204.743	232.83372	0.004884172
2516	140.75	201.146	236.00978	0.004971513
2517	140.8	210.401	242.58574	0.004752829
2518	140.85	209.429	252.35563	0.004774888
2519	140.9	221.404	265.05974	0.00451663
2520	140.95	242.033	280.34791	0.004131668
2521	141	256.518	297.73628	0.003898362
2522	141.05	277.788	316.55816	0.003599868
2523	141.1	318.857	335.91395	0.003136202
2524	141.15	354.754	354.63761	0.002818855
2525	141.2	384.278	371.31752	0.002602283
2526	141.25	414.964	384.42204	0.002409848
2527	141.3	445.272	392.55052	0.002245818
2528	141.35	444.212	394.74617	0.002251177
2529	141.4	442.704	390.72771	0.002258846
2530	141.45	414.461	380.91984	0.002412772
2531	141.5	383.032	366.28687	0.002610748
2532	141.55	355.816	348.07917	0.002810441
2533	141.6	318.421	327.5892	0.003140496
2534	141.65	295.569	306.03384	0.003383305
2535	141.7	265.495	284.47013	0.003766549
2536	141.75	240.116	263.7012	0.004164654
2537	141.8	229.058	244.32088	0.004365707
2538	141.85	213.115	226.71713	0.004692302
2539	141.9	193.512	211.09818	0.005167638
2540	141.95	181.952	197.52369	0.005495955
2541	142	169.189	185.93821	0.00591055
2542	142.05	164.16	176.20428	0.006091618
2543	142.1	161.343	168.13258	0.006197976
2544	142.15	158.932	161.50757	0.006291999
2545	142.2	148.184	156.10814	0.006748367
2546	142.25	147.825	151.72273	0.006764756
2547	142.3	144.537	148.15942	0.006918644
2548	142.35	136.846	145.25138	0.007307484
2549	142.4	143.098	142.85879	0.006988218
2550	142.45	144.717	140.86803	0.006910038
2551	142.5	139.048	139.18916	0.007191761
2552	142.55	144.356	137.7526	0.006927319
2553	142.6	145.516	136.50546	0.006872097
2554	142.65	143.015	135.40802	0.006992274
2555	142.7	137.143	134.43073	0.007291659
2556	142.75	138.928	133.55159	0.007197973
2557	142.8	145.863	132.72012	0.006855748
2558	142.85	136.395	131.97895	0.007331647
2559	142.9	140.021	131.30553	0.007141786
2560	142.95	139.073	130.68776	0.007190468
2561	143	135.574	130.11785	0.007376046
2562	143.05	139.05	129.58922	0.007191658
2563	143.1	136.314	129.09761	0.007336004
2564	143.15	138.301	128.63944	0.007230606
2565	143.2	136.252	128.21113	0.007339342
2566	143.25	132.3	127.81077	0.007558579
2567	143.3	132.129	127.43585	0.007568361
2568	143.35	134.767	127.08416	0.007420214
2569	143.4	136.521	126.75381	0.00732488
2570	143.45	134.654	126.4431	0.007426441
2571	143.5	132.245	126.1505	0.007561723
2572	143.55	137.493	125.87467	0.007273098
2573	143.6	139.574	125.61437	0.007164658
2574	143.65	129.734	125.3685	0.00770808
2575	143.7	132.916	125.13605	0.007523549
2576	143.75	134.763	124.91611	0.007420434
2577	143.8	135.42	124.70785	0.007384434
2578	143.85	132.936	124.5105	0.007522417
2579	143.9	137.652	124.32337	0.007264696
2580	143.95	138.04	124.14583	0.007244277
2581	144	136.447	123.97729	0.007328853
2582	144.05	137.879	123.81721	0.007252736
2583	144.1	132.991	123.66511	0.007519306
2584	144.15	130.329	123.52052	0.007672889
2585	144.2	142.512	123.38302	0.007016953
2586	144.25	136.807	123.25223	0.007309567
2587	144.3	132.213	123.12778	0.007563553
2588	144.35	134.552	123.00934	0.007432071
2589	144.4	134.622	122.89661	0.007428206
2590	144.45	131.367	122.78928	0.007612262
2591	144.5	136.628	122.68709	0.007319144
2592	144.55	134.635	122.58979	0.007427489
2593	144.6	137.097	122.49715	0.007294106
2594	144.65	140.865	122.40895	0.007098995
2595	144.7	136.148	122.32498	0.007344948
2596	144.75	137.234	122.24506	0.007286824
2597	144.8	145.39	122.16587	0.006878052
2598	144.85	139.331	122.08696	0.007177154
2599	144.9	144.716	122.01618	0.006910086
2600	144.95	146.63	121.94992	0.006819887
2601	145	146.987	121.8875	0.006803323
                 



_refine_ls_goodness_of_fit_all
1.96
_journal_year
2009
_journal_page_last
299
_symmetry_space_group_name_H-M
'R 3 c'
_pd_char_colour
white
_cell_angle_beta
90
_pd_spec_mount_mode
reflection
_cell_angle_alpha
90
_diffrn_radiation_monochromator
'Ge [115]'
_chemical_formula_sum
'K0.05 Na0.95 Nb1 O3'
_chemical_formula_structural
'K Na (Nb O3)'
_journal_page_first
291
_chemical_formula_weight
164.71
_pd_proc_info_excluded_regions
'145-160\% 2\q'
_pd_meas_2theta_range_max
160
_diffrn_measurement_device_type
D2B
_symmetry_cell_setting
trigonal
_diffrn_ambient_temperature
50
_journal_coeditor_code
WF5039
_pd_meas_2theta_range_inc
0.05
_pd_spec_size_axial
20
_journal_name_full
'Acta Crystallographica, Section B'
_journal_volume
65
_cell_volume
363.554(7)
_journal_issue
3
_pd_spec_mounting
'Vanadium can packed with powder'
_pd_spec_shape
cylinder
_pd_proc_ls_prof_R_factor
0.050
_diffrn_radiation_wavelength
1.60
_pd_spec_size_equat
50
_pd_block_diffractogram_id
KNN05at50K
_pd_spec_size_thick
20
_pd_meas_scan_method
step
_diffrn_radiation_type
Neutron
_journal_paper_category
FA
_journal_date_accepted
2009-03-25
_pd_proc_ls_prof_wR_factor
0.066
_cell_angle_gamma
120
_refine_ls_number_parameters
24
_computing_structure_refinement
'TOPAS Academic'
_cell_formula_units_Z
6
_cell_length_a
5.51848(4)
_cell_length_b
5.51848(4)
_pd_meas_number_of_points
2601
_cell_length_c
13.78476(15)
_chemical_name_systematic
'Sodium Potassium Niobate'
_pd_proc_ls_prof_wR_expected
0.017
_journal_date_recd_electronic
2008-12-13
_pd_meas_2theta_range_min
0.10
loop_
_symmetry_equiv_pos_as_xyz

;-x+y, -x, z
;

;-x+y, y, z+1/2
;

;-x+y+1/3, -x-1/3, z-1/3
;

;-x+y+1/3, y-1/3, z+1/6
;

;-x+y-1/3, -x+1/3, z+1/3
;

;-x+y-1/3, y+1/3, z-1/6
;

;-y, -x, z+1/2
;

;-y, x-y, z
;

;-y+1/3, -x-1/3, z+1/6
;

;-y+1/3, x-y-1/3, z-1/3
;

;-y-1/3, -x+1/3, z-1/6
;

;-y-1/3, x-y+1/3, z+1/3
;

;x, y, z
;

;x, x-y, z+1/2
;

;x+1/3, y-1/3, z-1/3
;

;x+1/3, x-y-1/3, z+1/6
;

;x-1/3, y+1/3, z+1/3
;

;x-1/3, x-y+1/3, z-1/6
;

loop_
_atom_type_symbol
Na1+
K1+
Nb5+
O2-

loop_
_atom_site_type_symbol
_atom_site_label
_atom_site_fract_x
_atom_site_fract_y
_atom_site_fract_z
_atom_site_occupancy
Na+1 Na1 0 0 0.27285(17) 0.95
K+1 K1 0 0 0.27285(17) 0.05
Nb+5 Nb1 0 0 0.01599(10) 1
O-2 O1 0.10555(19) 0.3366(3) 0.08333 1

