data_90K

_pd_block_id    dmpNA_MOR_090K
#=============================================================================
# 9. INSTRUMENT CHARACTERIZATION

_exptl_special_details
; ?
;

# if regions of the data are excluded, the reason(s) are supplied here:
_pd_proc_info_excluded_regions
;
 2theta<2.5deg. excluded because of beam stop.
 74.5<2theta excluded because of the edge of the detector
;

# The following item is used to identify the equipment used to record
# the powder pattern when the diffractogram was measured at a laboratory
# other than the authors' home institution, e.g. when neutron or synchrotron
# radiation is used.

_pd_instr_location
; BL02B2 powder beamline at SPring-8 synchrotron, Japan.
;
_pd_calibration_special_details           # description of the method used
                                          # to calibrate the instrument
; CeO2 NIST standard for used for wavelength calibration
;

_diffrn_ambient_temperature       90
_diffrn_source                    synchrotron
_diffrn_source_type               'SPring-8 BL02B2'
_diffrn_measurement_device_type   'Large Debye-Scherrer camera'
_diffrn_detector                  'Imaging plate'
_diffrn_detector_type             'Large Debye-Scherrer camera'

_pd_meas_scan_method              fixed 
_pd_meas_special_details
;  None
;

# The following two items identify the program(s) used (if appropriate).
_computing_data_collection        None
_computing_data_reduction         None

# Describe any processing performed on the data, prior to refinement.
# For example: a manual Lp correction or a precomputed absorption correction
_pd_proc_info_data_reduction      None


# The following items are used to define the size of the instrument.
# Not all distances are appropriate for all instrument types.

_pd_instr_dist_src/mono           ?
_pd_instr_dist_mono/spec          ?
_pd_instr_dist_src/spec           ?
_pd_instr_dist_spec/anal          ?
_pd_instr_dist_anal/detc          ?
_pd_instr_dist_spec/detc          ?

# 10. Specimen size and mounting information

# The next three fields give the specimen dimensions in mm.  The equatorial
# plane contains the incident and diffracted beam.

_pd_spec_size_axial               10
_pd_spec_size_equat               1.5
_pd_spec_size_thick               1.5
_pd_spec_mounting                 'pyrex glass capillary'

_pd_spec_mount_mode               'transmission'

_pd_spec_shape                    'cylinder'

_diffrn_radiation_probe                x-ray
_diffrn_radiation_wavelength            1.0017

#  The following profile R-factors are NOT CORRECTED for background
#  The sum is extended to all non-excluded points.
#  These are the current CIF standard

_pd_proc_ls_prof_R_factor                2.1507
_pd_proc_ls_prof_wR_factor               3.1582
_pd_proc_ls_prof_wR_expected             0.6018

#  The following profile R-factors are CORRECTED for background
#  The sum is extended to all non-excluded points.
#  These items are not in the current CIF standard, but are defined above

_pd_proc_ls_prof_cR_factor                9.0504
_pd_proc_ls_prof_cwR_factor               8.4724
_pd_proc_ls_prof_cwR_expected             1.6144

#  The following items are not in the CIF standard, but are defined above

_pd_proc_ls_prof_chi2                27.5425
_pd_proc_ls_prof_echi2               28.2370

_pd_proc_ls_background_function
;   FullProf Background function number
;

_exptl_absorpt_process_details
;   FullProf Absorption/surface roughness correction
 No correction is applied ?.
;

_pd_proc_ls_profile_function
;
;
_pd_proc_ls_peak_cutoff 0.00500
_pd_calc_method  "   Rietveld Refinement"

#---- raw/calc data loop -----
_pd_meas_2theta_range_min     0.0100
_pd_meas_2theta_range_max    75.1800
_pd_meas_2theta_range_inc     0.0100
_pd_proc_2theta_range_min     0.0041
_pd_proc_2theta_range_max    75.1741
_pd_proc_2theta_range_inc     0.0100

loop_
_pd_proc_point_id
_pd_proc_2theta_corrected
_pd_proc_intensity_total
_pd_calc_intensity_total
_pd_proc_intensity_bkg_calc
   251     2.5041    44864(212)         44647.0039        44647.0039
   252     2.5141    44872(212)         44596.7344        44596.7344
   253     2.5241    44536(211)         44546.4609        44546.4609
   254     2.5341    44552(211)         44496.1875        44496.1875
   255     2.5441    44356(211)         44445.9180        44445.9180
   256     2.5541    44568(211)         44395.6445        44395.6445
   257     2.5641    44408(211)         44345.3711        44345.3711
   258     2.5741    44316(211)         44295.1016        44295.1016
   259     2.5841    44036(210)         44244.8281        44244.8281
   260     2.5941    44240(210)         44194.5547        44194.5547
   261     2.6041    44116(210)         44144.2852        44144.2852
   262     2.6141    44364(211)         44094.0117        44094.0117
   263     2.6241    44064(210)         44043.7383        44043.7383
   264     2.6341    44220(210)         43993.4648        43993.4648
   265     2.6441    43672(209)         43943.1953        43943.1953
   266     2.6541    43932(210)         43892.9219        43892.9219
   267     2.6641    43532(209)         43842.6484        43842.6484
   268     2.6741    43780(209)         43792.3750        43792.3750
   269     2.6841    43272(208)         43742.1055        43742.1055
   270     2.6941    43656(209)         43691.8320        43691.8320
   271     2.7041    43052(207)         43641.5586        43641.5586
   272     2.7141    43456(208)         43591.2891        43591.2891
   273     2.7241    43268(208)         43541.0156        43541.0156
   274     2.7341    43480(209)         43490.7422        43490.7422
   275     2.7441    43180(208)         43440.4727        43440.4727
   276     2.7541    43152(208)         43390.1992        43390.1992
   277     2.7641    42448(206)         43339.9258        43339.9258
   278     2.7741    43036(207)         43289.6563        43289.6563
   279     2.7841    42744(207)         43239.3828        43239.3828
   280     2.7941    42884(207)         43189.1094        43189.1094
   281     2.8041    42568(206)         43138.8398        43138.8398
   282     2.8141    42780(207)         43088.5664        43088.5664
   283     2.8241    42412(206)         43038.2930        43038.2930
   284     2.8341    42596(206)         42988.0195        42988.0195
   285     2.8441    42428(206)         42937.7500        42937.7500
   286     2.8541    42548(206)         42887.4766        42887.4766
   287     2.8641    42372(206)         42837.2031        42837.2031
   288     2.8741    42376(206)         42786.9297        42786.9297
   289     2.8841    42052(205)         42736.6602        42736.6602
   290     2.8941    42236(206)         42686.3867        42686.3867
   291     2.9041    42080(205)         42636.1133        42636.1133
   292     2.9141    42376(206)         42585.8438        42585.8438
   293     2.9241    41564(204)         42535.5703        42535.5703
   294     2.9341    41908(205)         42485.2969        42485.2969
   295     2.9441    41492(204)         42435.0273        42435.0273
   296     2.9541    41852(205)         42384.7539        42384.7539
   297     2.9641    41684(204)         42334.4805        42334.4805
   298     2.9741    42060(205)         42284.2109        42284.2109
   299     2.9841    41600(204)         42233.9375        42233.9375
   300     2.9941    41752(204)         42183.6641        42183.6641
   301     3.0041    41380(203)         42133.3945        42133.3945
   302     3.0141    41728(204)         42083.1211        42083.1211
   303     3.0241    41488(204)         42032.8477        42032.8477
   304     3.0341    41620(204)         41982.5742        41982.5742
   305     3.0441    41452(204)         41932.3047        41932.3047
   306     3.0541    41704(204)         41882.0313        41882.0313
   307     3.0641    41112(203)         41831.7578        41831.7578
   308     3.0741    41392(203)         41781.4883        41781.4883
   309     3.0841    41228(203)         41731.2148        41731.2148
   310     3.0941    41540(204)         41680.9414        41680.9414
   311     3.1041    41248(203)         41630.6719        41630.6719
   312     3.1141    41104(203)         41580.3984        41580.3984
   313     3.1241    41032(203)         41530.1250        41530.1250
   314     3.1341    41348(203)         41479.8516        41479.8516
   315     3.1441    41164(203)         41429.5820        41429.5820
   316     3.1541    41280(203)         41379.3086        41379.3086
   317     3.1641    41220(203)         41329.0352        41329.0352
   318     3.1741    41160(203)         41278.7656        41278.7656
   319     3.1841    40772(202)         41228.4922        41228.4922
   320     3.1941    41008(203)         41178.2188        41178.2188
   321     3.2041    40920(202)         41127.9453        41127.9453
   322     3.2141    40896(202)         41077.6758        41077.6758
   323     3.2241    40700(202)         41027.4023        41027.4023
   324     3.2341    40884(202)         40977.1289        40977.1289
   325     3.2441    40424(201)         40926.8594        40926.8594
   326     3.2541    40788(202)         40876.5859        40876.5859
   327     3.2641    40792(202)         40826.3125        40826.3125
   328     3.2741    40956(202)         40776.0430        40776.0430
   329     3.2841    40812(202)         40725.7695        40725.7695
   330     3.2941    41088(203)         40675.4961        40675.4961
   331     3.3041    40592(201)         40625.2266        40625.2266
   332     3.3141    40776(202)         40574.9531        40574.9531
   333     3.3241    40544(201)         40524.6797        40524.6797
   334     3.3341    40584(201)         40474.4102        40474.4102
   335     3.3441    40328(201)         40424.1367        40424.1367
   336     3.3541    40700(202)         40373.8633        40373.8633
   337     3.3641    40332(201)         40323.5898        40323.5898
   338     3.3741    40504(201)         40273.3164        40273.3164
   339     3.3841    40416(201)         40223.0469        40223.0469
   340     3.3941    40384(201)         40172.7734        40172.7734
   341     3.4041    40416(201)         40122.5000        40122.5000
   342     3.4141    40384(201)         40072.2305        40072.2305
   343     3.4241    40176(200)         40021.9570        40021.9570
   344     3.4341    40412(201)         39971.6836        39971.6836
   345     3.4441    40436(201)         39921.4141        39921.4141
   346     3.4541    40452(201)         39871.1406        39871.1406
   347     3.4641    40188(200)         39820.8672        39820.8672
   348     3.4741    40560(201)         39770.5977        39770.5977
   349     3.4841    40008(200)         39720.3242        39720.3242
   350     3.4941    40408(201)         39702.4766        39702.4766
   351     3.5041    40096(200)         39684.6289        39684.6289
   352     3.5141    40300(201)         39666.7813        39666.7813
   353     3.5241    40164(200)         39648.9375        39648.9375
   354     3.5341    40320(201)         39631.0898        39631.0898
   355     3.5441    40016(200)         39613.2422        39613.2422
   356     3.5541    40048(200)         39595.3945        39595.3945
   357     3.5641    40120(200)         39577.5469        39577.5469
   358     3.5741    40356(201)         39559.6992        39559.6992
   359     3.5841    40056(200)         39739.8477        39541.8516
   360     3.5941    40180(200)         39728.1133        39524.0078
   361     3.6041    39880(200)         39716.6563        39506.1602
   362     3.6141    39924(200)         39705.5078        39488.3125
   363     3.6241    39788(199)         39694.6836        39470.4648
   364     3.6341    40048(200)         39684.2070        39452.6172
   365     3.6441    39756(199)         39674.0977        39434.7695
   366     3.6541    39748(199)         39664.3828        39416.9219
   367     3.6641    39616(199)         39655.0898        39399.0742
   368     3.6741    39732(199)         39646.2500        39381.2305
   369     3.6841    39780(199)         39637.8945        39363.3828
   370     3.6941    39796(199)         39630.0547        39345.5352
   371     3.7041    39472(199)         39622.7695        39327.6875
   372     3.7141    39924(200)         39616.0859        39309.8398
   373     3.7241    39528(199)         39610.0469        39291.9922
   374     3.7341    39800(199)         39604.7070        39274.1445
   375     3.7441    39808(200)         39600.1172        39256.3008
   376     3.7541    40076(200)         39596.3438        39238.4531
   377     3.7641    39560(199)         39593.4453        39220.6055
   378     3.7741    39784(199)         39591.5078        39202.7578
   379     3.7841    39488(199)         39590.6055        39184.9102
   380     3.7941    39772(199)         39590.8359        39167.0625
   381     3.8041    39636(199)         39592.3047        39149.2148
   382     3.8141    40128(200)         39595.1250        39131.3711
   383     3.8241    39748(199)         39599.4180        39113.5234
   384     3.8341    39832(200)         39605.3359        39095.6758
   385     3.8441    39248(198)         39613.0391        39077.8281
   386     3.8541    39700(199)         39634.4375        39071.7070
   387     3.8641    39688(199)         39658.0078        39065.5820
   388     3.8741    40120(200)         39683.9922        39059.4609
   389     3.8841    39908(200)         39712.6563        39053.3359
   390     3.8941    40128(200)         39744.3047        39047.2148
   391     3.9041    39588(199)         39779.2852        39041.0898
   392     3.9141    39920(200)         39818.0117        39034.9688
   393     3.9241    39832(200)         39860.9453        39028.8477
   394     3.9341    40164(200)         39908.6289        39022.7227
   395     3.9441    40184(200)         39961.6953        39016.6016
   396     3.9541    40224(201)         40020.8828        39010.4766
   397     3.9641    40048(200)         40087.0703        39004.3555
   398     3.9741    40328(201)         40161.2852        38998.2305
   399     3.9841    40188(200)         40244.7695        38992.1094
   400     3.9941    40568(201)         40338.9883        38985.9883
   401     4.0041    40560(201)         40445.7305        38979.8633
   402     4.0141    40596(201)         40567.1602        38973.7422
   403     4.0241    40392(201)         40705.9336        38967.6172
   404     4.0341    40836(202)         40865.3281        38961.4961
   405     4.0441    41128(203)         41049.4375        38955.3711
   406     4.0541    41180(203)         41263.4102        38949.2500
   407     4.0641    41476(204)         41513.8281        38943.1289
   408     4.0741    41908(205)         41809.1289        38937.0039
   409     4.0841    41864(205)         42160.4961        38930.8828
   410     4.0941    42472(206)         42582.9375        38924.7578
   411     4.1041    42984(207)         43097.8281        38918.6367
   412     4.1141    43596(209)         43737.7305        38912.5117
   413     4.1241    44240(210)         44557.5703        38906.3906
   414     4.1341    45636(214)         45657.1797        38900.2695
   415     4.1441    46556(216)         47224.0547        38894.1445
   416     4.1541    49304(222)         49600.4063        38888.0234
   417     4.1641    53256(231)         53380.5234        38881.8984
   418     4.1741    60876(247)         59608.6641        38875.7773
   419     4.1841    74448(273)         70592.2578        38869.6523
   420     4.1941    102664(320)         92906.4844        38863.5313
   421     4.2041    156604(396)        143008.8750        38857.4102
   422     4.2141    257368(507)        244338.0160        38851.2852
   423     4.2241    401252(633)        395480.9690        38845.1641
   424     4.2341    533784(731)        529106.9380        38839.0391
   425     4.2441    508304(713)        531158.1880        38832.9180
   426     4.2541    361544(601)        372006.5630        38826.7930
   427     4.2641    192668(439)        194379.9380        38820.6719
   428     4.2741    106732(327)         95592.7500        38814.5508
   429     4.2841    71628(268)         60235.8281        38808.4258
   430     4.2941    57852(241)         50938.0430        38802.3047
   431     4.3041    50864(226)         48932.0625        38796.1797
   432     4.3141    47344(218)         48637.5000        38790.0586
   433     4.3241    44912(212)         48382.8594        38783.9336
   434     4.3341    43916(210)         47726.0352        38777.8125
   435     4.3441    42884(207)         46771.7852        38771.6914
   436     4.3541    42436(206)         45737.5078        38765.5664
   437     4.3641    41552(204)         44771.6484        38759.4453
   438     4.3741    41288(203)         43935.8789        38753.3203
   439     4.3841    40676(202)         43237.6055        38747.1992
   440     4.3941    40732(202)         42660.4727        38741.0742
   441     4.4041    40584(201)         42182.6172        38734.9531
   442     4.4141    40460(201)         41783.9141        38728.8320
   443     4.4241    40208(201)         41448.1641        38722.7070
   444     4.4341    40384(201)         41162.7461        38716.5859
   445     4.4441    39968(200)         40918.0000        38710.4609
   446     4.4541    39736(199)         40706.4102        38704.3398
   447     4.4641    39788(199)         40522.1445        38698.2188
   448     4.4741    39692(199)         40360.5586        38692.0938
   449     4.4841    39600(199)         40217.9922        38685.9727
   450     4.4941    39468(199)         40091.4492        38679.8477
   451     4.5041    39280(198)         39978.5391        38673.7266
   452     4.5141    39588(199)         39877.2813        38667.6016
   453     4.5241    39416(199)         39786.0352        38661.4805
   454     4.5341    39696(199)         39703.4570        38655.3594
   455     4.5441    39408(199)         39628.3984        38649.2344
   456     4.5541    39240(198)         39559.9219        38643.1133
   457     4.5641    39044(198)         39497.1992        38636.9883
   458     4.5741    39372(198)         39439.5586        38630.8672
   459     4.5841    39388(198)         39386.3984        38624.7422
   460     4.5941    39544(199)         39337.2266        38618.6211
   461     4.6041    39160(198)         39291.6016        38612.5000
   462     4.6141    39292(198)         39249.1367        38606.3750
   463     4.6241    38888(197)         39209.5117        38600.2539
   464     4.6341    39084(198)         39172.4375        38594.1289
   465     4.6441    38880(197)         39137.6602        38588.0078
   466     4.6541    39224(198)         39104.9570        38581.8828
   467     4.6641    39036(198)         39074.1406        38575.7617
   468     4.6741    38820(197)         39045.0273        38569.6406
   469     4.6841    38676(197)         39017.4648        38563.5156
   470     4.6941    39156(198)         38991.3242        38557.3945
   471     4.7041    38588(196)         38966.4766        38551.2695
   472     4.7141    38968(197)         38942.8125        38545.1484
   473     4.7241    38840(197)         38920.2383        38539.0234
   474     4.7341    38892(197)         38898.6641        38532.9023
   475     4.7441    38360(196)         38878.0117        38526.7813
   476     4.7541    38632(197)         38858.2031        38520.6563
   477     4.7641    38660(197)         38839.1797        38514.5352
   478     4.7741    38676(197)         38820.8828        38508.4102
   479     4.7841    38352(196)         38803.2578        38502.2891
   480     4.7941    38376(196)         38786.2539        38496.1641
   481     4.8041    38352(196)         38769.8320        38490.0430
   482     4.8141    38444(196)         38753.9492        38483.9219
   483     4.8241    38520(196)         38738.5625        38477.7969
   484     4.8341    38556(196)         38723.6523        38471.6758
   485     4.8441    38176(195)         38709.1719        38465.5508
   486     4.8541    38628(197)         38695.1055        38459.4297
   487     4.8641    38348(196)         38681.4180        38453.3047
   488     4.8741    38444(196)         38668.0898        38447.1836
   489     4.8841    38300(196)         38655.0977        38441.0625
   490     4.8941    38324(196)         38642.4180        38434.9375
   491     4.9041    38520(196)         38630.0391        38428.8164
   492     4.9141    38368(196)         38422.6914        38422.6914
   493     4.9241    38228(196)         38416.5703        38416.5703
   494     4.9341    38624(197)         38410.4453        38410.4453
   495     4.9441    38452(196)         38404.3242        38404.3242
   496     4.9541    38408(196)         38398.2031        38398.2031
   497     4.9641    38236(196)         38392.0781        38392.0781
   498     4.9741    38332(196)         38434.0859        38385.9570
   499     4.9841    37968(195)         38429.4648        38379.8320
   500     4.9941    38112(195)         38424.9258        38373.7109
   501     5.0041    37980(195)         38420.4531        38367.5859
   502     5.0141    38536(196)         38416.0703        38361.4648
   503     5.0241    38164(195)         38411.7734        38355.3438
   504     5.0341    38292(196)         38407.5625        38349.2188
   505     5.0441    37972(195)         38403.4570        38343.0977
   506     5.0541    38260(196)         38399.4531        38336.9727
   507     5.0641    38216(195)         38395.5703        38330.8516
   508     5.0741    38400(196)         38391.8008        38324.7266
   509     5.0841    37944(195)         38388.1680        38318.6055
   510     5.0941    38164(195)         38366.0547        38293.8594
   511     5.1041    37960(195)         38344.0898        38269.1133
   512     5.1141    38188(195)         38322.2891        38244.3672
   513     5.1241    38256(196)         38300.6641        38219.6211
   514     5.1341    38452(196)         38279.2344        38194.8750
   515     5.1441    38384(196)         38258.0078        38170.1289
   516     5.1541    38328(196)         38237.0078        38145.3828
   517     5.1641    38212(195)         38216.2539        38120.6367
   518     5.1741    38612(196)         38195.7656        38095.8906
   519     5.1841    38444(196)         38175.5664        38071.1445
   520     5.1941    38852(197)         38155.6875        38046.3984
   521     5.2041    38852(197)         38136.1523        38021.6523
   522     5.2141    39104(198)         38117.0039        37996.9063
   523     5.2241    39036(198)         38098.2734        37972.1602
   524     5.2341    39348(198)         38080.0039        37947.4141
   525     5.2441    39208(198)         38062.2500        37922.6680
   526     5.2541    39320(198)         38045.0586        37897.9219
   527     5.2641    38908(197)         38028.5000        37873.1758
   528     5.2741    38988(197)         38012.6445        37848.4297
   529     5.2841    38600(196)         37997.5703        37823.6836
   530     5.2941    38796(197)         37983.3750        37798.9375
   531     5.3041    38680(197)         37970.1719        37774.1914
   532     5.3141    38732(197)         37958.0820        37749.4453
   533     5.3241    38636(197)         37947.2578        37724.6992
   534     5.3341    38452(196)         37937.8750        37699.9531
   535     5.3441    37968(195)         37930.1328        37675.2070
   536     5.3541    38340(196)         37924.2773        37650.4609
   537     5.3641    38268(196)         37920.5977        37625.7148
   538     5.3741    38420(196)         37919.4375        37600.9688
   539     5.3841    37992(195)         37921.2188        37576.2227
   540     5.3941    38276(196)         37926.4492        37551.4766
   541     5.4041    38104(195)         37935.7461        37526.7305
   542     5.4141    38276(196)         37949.8828        37501.9844
   543     5.4241    37964(195)         37969.8164        37477.2383
   544     5.4341    38256(196)         37996.7500        37452.4922
   545     5.4441    37916(195)         38032.2266        37427.7461
   546     5.4541    38512(196)         38078.2227        37403.0000
   547     5.4641    37812(194)         38137.3320        37378.2539
   548     5.4741    38128(195)         38213.0352        37353.5078
   549     5.4841    38420(196)         38310.1523        37328.7617
   550     5.4941    38672(197)         38435.7969        37304.0156
   551     5.5041    38528(196)         38601.3203        37279.2656
   552     5.5141    39092(198)         38826.4414        37254.5195
   553     5.5241    38824(197)         39147.1719        37229.7734
   554     5.5341    39656(199)         39628.8438        37205.0273
   555     5.5441    40036(200)         40385.9688        37180.2813
   556     5.5541    41328(203)         41620.9883        37155.5352
   557     5.5641    43492(209)         43775.3359        37130.7891
   558     5.5741    48332(220)         48113.3477        37106.0430
   559     5.5841    57532(240)         57975.4805        37081.2969
   560     5.5941    77332(278)         78753.2500        37056.5508
   561     5.6041    109116(330)        111907.3670        37031.8047
   562     5.6141    146320(383)        145227.0470        37007.0586
   563     5.6241    154324(393)        153308.3130        36982.3125
   564     5.6341    126128(355)        123284.0630        36957.5664
   565     5.6441    84076(290)         82980.6406        36932.8203
   566     5.6541    58824(243)         57174.3008        36908.0742
   567     5.6641    47920(219)         45760.9375        36883.3281
   568     5.6741    43412(208)         41612.0547        36858.5820
   569     5.6841    41104(203)         40190.9609        36833.8359
   570     5.6941    40116(200)         39656.2031        36809.0898
   571     5.7041    38996(197)         39331.1094        36784.3438
   572     5.7141    39148(198)         39327.2891        36759.5977
   573     5.7241    38984(197)         39015.5742        36734.8516
   574     5.7341    38936(197)         38722.5977        36710.1055
   575     5.7441    38440(196)         38465.5781        36685.3594
   576     5.7541    38508(196)         38248.8789        36660.6133
   577     5.7641    38028(195)         38069.1133        36635.8672
   578     5.7741    38320(196)         37920.1719        36611.1211
   579     5.7841    38120(195)         37796.0000        36586.3750
   580     5.7941    38308(196)         37691.5430        36561.6289
   581     5.8041    38160(195)         37602.8906        36536.8828
   582     5.8141    38212(195)         37527.0547        36512.1367
   583     5.8241    37856(195)         37461.7734        36487.3906
   584     5.8341    38008(195)         37405.3164        36462.6445
   585     5.8441    37604(194)         37356.3594        36437.8984
   586     5.8541    38216(195)         37313.8789        36413.1523
   587     5.8641    37824(194)         37277.0820        36388.4063
   588     5.8741    38032(195)         37245.3555        36363.6602
   589     5.8841    37576(194)         37218.2266        36338.9141
   590     5.8941    37880(195)         37195.3438        36314.1680
   591     5.9041    37824(194)         37176.4453        36289.4219
   592     5.9141    38104(195)         37161.3516        36264.6758
   593     5.9241    37588(194)         37149.9570        36239.9297
   594     5.9341    37984(195)         37142.2070        36215.1836
   595     5.9441    37336(193)         37138.1094        36190.4375
   596     5.9541    37608(194)         37154.2813        36182.2422
   597     5.9641    37496(194)         37174.2852        36174.0508
   598     5.9741    37920(195)         37198.2813        36165.8594
   599     5.9841    37852(195)         37226.4805        36157.6641
   600     5.9941    37996(195)         37259.1797        36149.4727
   601     6.0041    37660(194)         37296.6992        36141.2773
   602     6.0141    37908(195)         37339.4570        36133.0859
   603     6.0241    37700(194)         37387.9414        36124.8906
   604     6.0341    38156(195)         37442.7305        36116.6992
   605     6.0441    37904(195)         37504.5117        36108.5039
   606     6.0541    38052(195)         37574.0898        36100.3125
   607     6.0641    37692(194)         37652.4180        36092.1172
   608     6.0741    38316(196)         37740.6289        36083.9258
   609     6.0841    38220(195)         37840.0703        36075.7305
   610     6.0941    38728(197)         37952.3359        36067.5391
   611     6.1041    38336(196)         38079.3516        36059.3477
   612     6.1141    38600(196)         38223.4102        36051.1523
   613     6.1241    38520(196)         38387.3281        36042.9609
   614     6.1341    38812(197)         38574.5000        36034.7656
   615     6.1441    38868(197)         38789.1367        36026.5742
   616     6.1541    39408(199)         39036.4141        36018.3789
   617     6.1641    39300(198)         39322.8633        36010.1875
   618     6.1741    39752(199)         39656.6563        36001.9922
   619     6.1841    39908(200)         40048.3320        35993.8008
   620     6.1941    40364(201)         40511.4180        35985.6055
   621     6.2041    40868(202)         41063.8242        35977.4141
   622     6.2141    41420(204)         41729.5117        35969.2227
   623     6.2241    42048(205)         42542.0586        35961.0273
   624     6.2341    42984(207)         43551.0078        35952.8359
   625     6.2441    43884(209)         44835.9883        35944.6406
   626     6.2541    45724(214)         46534.8750        35936.4492
   627     6.2641    47560(218)         48897.1250        35928.2539
   628     6.2741    50616(225)         52371.5742        35920.0625
   629     6.2841    55472(236)         57692.5234        35911.8672
   630     6.2941    64552(254)         66385.5625        35903.6758
   631     6.3041    81076(285)         81770.4219        35895.4805
   632     6.3141    116344(341)        113779.2110        35887.2891
   633     6.3241    187092(433)        187026.6090        35879.0938
   634     6.3341    330984(575)        335576.1560        35870.9023
   635     6.3441    554268(744)        556527.4380        35862.7109
   636     6.3541    784612(886)        753034.5630        35854.5156
   637     6.3641    782628(885)        758408.5000        35846.3242
   638     6.3741    548168(740)        539147.6250        35838.1289
   639     6.3841    281848(531)        297862.4060        35829.9375
   640     6.3941    144356(380)        153543.4380        35821.7422
   641     6.4041    87024(295)         90237.7500        35813.5508
   642     6.4141    64620(254)         66561.7031        35805.3555
   643     6.4241    54048(232)         58092.1406        35797.1641
   644     6.4341    49200(222)         54558.6602        35788.9688
   645     6.4441    46124(215)         52205.0391        35780.7773
   646     6.4541    44556(211)         50037.1680        35772.5820
   647     6.4641    42848(207)         47997.2422        35764.3906
   648     6.4741    42152(205)         46185.8672        35756.1992
   649     6.4841    40856(202)         44653.6133        35748.0039
   650     6.4941    40704(202)         43391.0039        35739.8125
   651     6.5041    39740(199)         42359.2813        35731.6172
   652     6.5141    40004(200)         41513.8906        35723.4258
   653     6.5241    39316(198)         40815.3398        35715.2305
   654     6.5341    39260(198)         40232.3438        35707.0391
   655     6.5441    38556(196)         39740.7813        35698.8438
   656     6.5541    38724(197)         39322.4258        35690.6523
   657     6.5641    38492(196)         38963.2305        35682.4570
   658     6.5741    38344(196)         38652.4180        35674.2656
   659     6.5841    38292(196)         38381.4844        35666.0703
   660     6.5941    38140(195)         38143.7617        35657.8789
   661     6.6041    37684(194)         37933.8789        35649.6875
   662     6.6141    37780(194)         37747.5273        35641.4922
   663     6.6241    37496(194)         37581.1875        35633.3008
   664     6.6341    37856(195)         37431.9805        35625.1055
   665     6.6441    37644(194)         37297.5195        35616.9141
   666     6.6541    37636(194)         37175.8242        35608.7188
   667     6.6641    37020(192)         37065.2305        35600.5273
   668     6.6741    37528(194)         36964.3398        35592.3320
   669     6.6841    37164(193)         36871.9688        35584.1406
   670     6.6941    37180(193)         36787.1016        35575.9453
   671     6.7041    37020(192)         36708.8711        35567.7539
   672     6.7141    36992(192)         36636.5430        35559.5625
   673     6.7241    36672(191)         36569.4609        35551.3672
   674     6.7341    37100(193)         36507.0820        35543.1758
   675     6.7441    36648(191)         36448.9063        35534.9805
   676     6.7541    36892(192)         36394.5195        35526.7891
   677     6.7641    36628(191)         36343.5430        35518.5938
   678     6.7741    36908(192)         36295.6523        35510.4023
   679     6.7841    36584(191)         36250.5547        35502.2070
   680     6.7941    36552(191)         36208.0000        35494.0156
   681     6.8041    36508(191)         36167.7578        35485.8203
   682     6.8141    36696(192)         36129.6211        35477.6289
   683     6.8241    36640(191)         36093.4141        35469.4336
   684     6.8341    36636(191)         36058.9727        35461.2422
   685     6.8441    36380(191)         36026.1563        35453.0508
   686     6.8541    36732(192)         35994.8242        35444.8555
   687     6.8641    36476(191)         35964.8711        35436.6641
   688     6.8741    36496(191)         35936.1758        35428.4688
   689     6.8841    36384(191)         35908.6563        35420.2773
   690     6.8941    36460(191)         35882.2148        35412.0820
   691     6.9041    36124(190)         35856.7813        35403.8906
   692     6.9141    36304(191)         35832.2734        35395.6953
   693     6.9241    36228(190)         35808.6367        35387.5039
   694     6.9341    36316(191)         35785.8008        35379.3086
   695     6.9441    36188(190)         35763.7188        35371.1172
   696     6.9541    36220(190)         35742.3320        35362.9219
   697     6.9641    35940(190)         35721.6016        35354.7305
   698     6.9741    36388(191)         35714.0898        35359.1445
   699     6.9841    36084(190)         35707.1523        35363.5625
   700     6.9941    36360(191)         35700.7500        35367.9766
   701     7.0041    36056(190)         35694.8516        35372.3945
   702     7.0141    36248(190)         35689.4219        35376.8086
   703     7.0241    35776(189)         35381.2227        35381.2227
   704     7.0341    36216(190)         35385.6406        35385.6406
   705     7.0441    36036(190)         35390.0547        35390.0547
   706     7.0541    36188(190)         35394.4727        35394.4727
   707     7.0641    36084(190)         35398.8867        35398.8867
   708     7.0741    36096(190)         35403.3047        35403.3047
   709     7.0841    35936(190)         35407.7188        35407.7188
   710     7.0941    36036(190)         35412.1328        35412.1328
   711     7.1041    35792(189)         35416.5508        35416.5508
   712     7.1141    35892(189)         35420.9648        35420.9648
   713     7.1241    35732(189)         35425.3828        35425.3828
   714     7.1341    35760(189)         35429.7969        35429.7969
   715     7.1441    35672(189)         35434.2109        35434.2109
   716     7.1541    36056(190)         35438.6289        35438.6289
   717     7.1641    35740(189)         35443.0430        35443.0430
   718     7.1741    36076(190)         35447.4609        35447.4609
   719     7.1841    35916(190)         35451.8750        35451.8750
   720     7.1941    35844(189)         35456.2891        35456.2891
   721     7.2041    35524(188)         35460.7070        35460.7070
   722     7.2141    35780(189)         35465.1211        35465.1211
   723     7.2241    35656(189)         35469.5391        35469.5391
   724     7.2341    35884(189)         35473.9531        35473.9531
   725     7.2441    35556(189)         35478.3672        35478.3672
   726     7.2541    35728(189)         35482.7852        35482.7852
   727     7.2641    35488(188)         35487.1992        35487.1992
   728     7.2741    35768(189)         35491.6172        35491.6172
   729     7.2841    35516(188)         35496.0313        35496.0313
   730     7.2941    36084(190)         35500.4492        35500.4492
   731     7.3041    35612(189)         35504.8633        35504.8633
   732     7.3141    35932(190)         35509.2773        35509.2773
   733     7.3241    35264(188)         35513.6953        35513.6953
   734     7.3341    35636(189)         35518.1094        35518.1094
   735     7.3441    35620(189)         35522.5273        35522.5273
   736     7.3541    35864(189)         35526.9414        35526.9414
   737     7.3641    35664(189)         35531.3555        35531.3555
   738     7.3741    35860(189)         35535.7734        35535.7734
   739     7.3841    35400(188)         35540.1875        35540.1875
   740     7.3941    35420(188)         35544.6055        35544.6055
   741     7.4041    35436(188)         35549.0195        35549.0195
   742     7.4141    35488(188)         35553.4336        35553.4336
   743     7.4241    35240(188)         35557.8516        35557.8516
   744     7.4341    35640(189)         35562.2656        35562.2656
   745     7.4441    35532(188)         35566.6836        35566.6836
   746     7.4541    35588(189)         35571.0977        35571.0977
   747     7.4641    35484(188)         35575.5117        35575.5117
   748     7.4741    35628(189)         35579.9297        35579.9297
   749     7.4841    35392(188)         35584.3438        35584.3438
   750     7.4941    35488(188)         35588.7617        35588.7617
   751     7.5041    35300(188)         35593.1758        35593.1758
   752     7.5141    35352(188)         35597.5898        35597.5898
   753     7.5241    35268(188)         35602.0078        35602.0078
   754     7.5341    35580(189)         35606.4219        35606.4219
   755     7.5441    35184(188)         35610.8398        35610.8398
   756     7.5541    35484(188)         35615.2539        35615.2539
   757     7.5641    35112(187)         35619.6719        35619.6719
   758     7.5741    35496(188)         35624.0859        35624.0859
   759     7.5841    35380(188)         35628.5000        35628.5000
   760     7.5941    35564(189)         35632.9180        35632.9180
   761     7.6041    35336(188)         35637.3320        35637.3320
   762     7.6141    35484(188)         35641.7500        35641.7500
   763     7.6241    35052(187)         35646.1641        35646.1641
   764     7.6341    35500(188)         35625.0859        35625.0859
   765     7.6441    35320(188)         35604.0078        35604.0078
   766     7.6541    35652(189)         35582.9297        35582.9297
   767     7.6641    35408(188)         35561.8516        35561.8516
   768     7.6741    35628(189)         35540.7773        35540.7773
   769     7.6841    35356(188)         35519.6992        35519.6992
   770     7.6941    35476(188)         35498.6211        35498.6211
   771     7.7041    35356(188)         35477.5430        35477.5430
   772     7.7141    35716(189)         35456.4648        35456.4648
   773     7.7241    35260(188)         35435.3867        35435.3867
   774     7.7341    35388(188)         35414.3086        35414.3086
   775     7.7441    35280(188)         35393.2305        35393.2305
   776     7.7541    35308(188)         35372.1523        35372.1523
   777     7.7641    35300(188)         35351.0781        35351.0781
   778     7.7741    35460(188)         35330.0000        35330.0000
   779     7.7841    35220(188)         35308.9219        35308.9219
   780     7.7941    35560(189)         35287.8438        35287.8438
   781     7.8041    35132(187)         35266.7656        35266.7656
   782     7.8141    35312(188)         35245.6875        35245.6875
   783     7.8241    35196(188)         35224.6094        35224.6094
   784     7.8341    35532(188)         35203.5313        35203.5313
   785     7.8441    35336(188)         35182.4531        35182.4531
   786     7.8541    35332(188)         35161.3750        35161.3750
   787     7.8641    35192(188)         35143.8750        35140.3008
   788     7.8741    35456(188)         35122.9141        35119.2227
   789     7.8841    35584(189)         35101.9570        35098.1445
   790     7.8941    35464(188)         35081.0039        35077.0664
   791     7.9041    35192(188)         35060.0586        35055.9883
   792     7.9141    35152(187)         35039.1211        35034.9102
   793     7.9241    35120(187)         35018.1914        35013.8320
   794     7.9341    35300(188)         34997.2695        34992.7539
   795     7.9441    35644(189)         34976.3555        34971.6797
   796     7.9541    35448(188)         34955.4531        34950.6016
   797     7.9641    35092(187)         34934.5547        34929.5234
   798     7.9741    35364(188)         34913.6719        34908.4453
   799     7.9841    35000(187)         34892.7969        34887.3672
   800     7.9941    35396(188)         34889.0117        34883.3633
   801     8.0041    35356(188)         34885.2383        34879.3594
   802     8.0141    35416(188)         34881.4727        34875.3516
   803     8.0241    35468(188)         34877.7305        34871.3477
   804     8.0341    35500(188)         34874.0000        34867.3438
   805     8.0441    35136(187)         34870.2930        34863.3398
   806     8.0541    35428(188)         34866.6055        34859.3359
   807     8.0641    35196(188)         34862.9375        34855.3320
   808     8.0741    35484(188)         34859.2930        34851.3281
   809     8.0841    35184(188)         34855.6719        34847.3203
   810     8.0941    35436(188)         34852.0859        34843.3164
   811     8.1041    35248(188)         34848.5313        34839.3125
   812     8.1141    35492(188)         34845.0078        34835.3086
   813     8.1241    35532(188)         35101.8359        34831.3047
   814     8.1341    35796(189)         35106.7734        34827.3008
   815     8.1441    35564(189)         35112.1641        34823.2969
   816     8.1541    35752(189)         35118.0469        34819.2891
   817     8.1641    35416(188)         35124.4609        34815.2852
   818     8.1741    35792(189)         35131.4414        34811.2813
   819     8.1841    35492(188)         35139.0313        34807.2773
   820     8.1941    35844(189)         35147.2813        34803.2734
   821     8.2041    35540(189)         35156.2422        34799.2695
   822     8.2141    35780(189)         35165.9688        34795.2617
   823     8.2241    35436(188)         35176.5391        34791.2578
   824     8.2341    35840(189)         35188.0195        34787.2539
   825     8.2441    35776(189)         35200.4961        34783.2500
   826     8.2541    35716(189)         35214.0586        34779.2461
   827     8.2641    35524(188)         35228.8164        34775.2422
   828     8.2741    35948(190)         35244.8828        34771.2383
   829     8.2841    35652(189)         35262.4063        34767.2305
   830     8.2941    35780(189)         35281.5508        34763.2266
   831     8.3041    35640(189)         35302.5000        34759.2227
   832     8.3141    35892(189)         35325.4727        34755.2188
   833     8.3241    35720(189)         35350.7422        34751.2148
   834     8.3341    35840(189)         35378.6289        34747.2109
   835     8.3441    35660(189)         35409.5234        34743.2031
   836     8.3541    36088(190)         35443.9297        34739.1992
   837     8.3641    35976(190)         35482.5000        34735.1953
   838     8.3741    36108(190)         35526.1172        34731.1914
   839     8.3841    35972(190)         35576.1055        34727.1875
   840     8.3941    36184(190)         35706.7266        34723.1836
   841     8.4041    35824(189)         35779.5547        34719.1797
   842     8.4141    36548(191)         35870.5508        34715.1719
   843     8.4241    36424(191)         35990.1133        34711.1680
   844     8.4341    36592(191)         36159.0508        34707.1641
   845     8.4441    36508(191)         36434.1758        34703.1602
   846     8.4541    36948(192)         36980.0625        34699.1563
   847     8.4641    37168(193)         38134.9648        34695.1523
   848     8.4741    38380(196)         40194.4063        34691.1445
   849     8.4841    39324(198)         42776.9336        34687.1406
   850     8.4941    40512(201)         44408.8203        34683.1367
   851     8.5041    39840(200)         43463.9766        34679.1328
   852     8.5141    39016(198)         40916.8555        34675.1289
   853     8.5241    37756(194)         38876.8750        34671.1250
   854     8.5341    37772(194)         37862.5078        34667.1211
   855     8.5441    37840(195)         37546.1484        34663.1133
   856     8.5541    37900(195)         37572.2656        34659.1094
   857     8.5641    38256(196)         37750.0664        34655.1055
   858     8.5741    38596(196)         38005.8359        34651.1016
   859     8.5841    38424(196)         38323.1563        34647.0977
   860     8.5941    39012(198)         38708.7305        34643.0938
   861     8.6041    39296(198)         39178.2578        34639.0859
   862     8.6141    40092(200)         39753.8281        34635.0820
   863     8.6241    40400(201)         40466.0195        34631.0781
   864     8.6341    41240(203)         41360.2187        34627.0742
   865     8.6441    42060(205)         42508.9961        34623.0703
   866     8.6541    43600(209)         44037.1602        34619.0664
   867     8.6641    45080(212)         46165.6406        34615.0586
   868     8.6741    48308(220)         49284.1836        34611.0547
   869     8.6841    52752(230)         54078.1016        34607.0508
   870     8.6941    60856(247)         61929.3359        34603.0469
   871     8.7041    75108(274)         76601.1328        34599.0430
   872     8.7141    106156(326)        109207.7110        34595.0391
   873     8.7241    169256(411)        183518.8910        34591.0352
   874     8.7341    293876(542)        322642.3130        34587.0273
   875     8.7441    476332(690)        504153.6250        34583.0234
   876     8.7541    622952(789)        626068.5630        34579.0195
   877     8.7641    563412(751)        563610.4380        34575.0156
   878     8.7741    356640(597)        371296.7810        34571.0117
   879     8.7841    189896(436)        206612.5000        34567.0078
   880     8.7941    108740(330)        115243.0940        34563.0000
   881     8.8041    74428(273)         75275.0781        34558.9961
   882     8.8141    60076(245)         59855.3516        34554.9922
   883     8.8241    52376(229)         53764.4883        34550.9883
   884     8.8341    48248(220)         50606.9531        34546.9844
   885     8.8441    45588(214)         48306.1367        34542.9805
   886     8.8541    44320(211)         46391.9961        34538.9766
   887     8.8641    43152(208)         44806.7461        34534.9688
   888     8.8741    42364(206)         43586.7031        34530.9648
   889     8.8841    41184(203)         42617.9648        34526.9609
   890     8.8941    41188(203)         41908.4492        34522.9570
   891     8.9041    40920(202)         41427.6328        34518.9531
   892     8.9141    41140(203)         41161.5078        34514.9492
   893     8.9241    41084(203)         41121.9609        34510.9414
   894     8.9341    41544(204)         41360.2422        34506.9375
   895     8.9441    41884(205)         41988.7188        34502.9336
   896     8.9541    43500(209)         43227.9063        34498.9297
   897     8.9641    45680(214)         45591.2578        34494.9258
   898     8.9741    51276(226)         50613.0469        34490.9219
   899     8.9841    62244(249)         62520.6523        34486.9180
   900     8.9941    86596(294)         88663.7188        34482.9102
   901     9.0041    126440(356)        132550.7970        34478.9063
   902     9.0141    178324(422)        180578.3130        34474.9023
   903     9.0241    196524(443)        198374.8440        34470.8984
   904     9.0341    160976(401)        163240.5630        34466.8945
   905     9.0441    105152(324)        109664.6950        34462.8906
   906     9.0541    69148(263)         71771.6250        34458.8828
   907     9.0641    51820(228)         52642.7578        34454.8789
   908     9.0741    45076(212)         44670.9297        34450.8750
   909     9.0841    41808(204)         41581.3008        34446.8711
   910     9.0941    40476(201)         40223.7891        34442.8672
   911     9.1041    39216(198)         39386.9023        34438.8633
   912     9.1141    38712(197)         38719.4531        34434.8594
   913     9.1241    37780(194)         38152.1953        34430.8516
   914     9.1341    37844(195)         37675.6563        34426.8477
   915     9.1441    37780(194)         37279.3555        34422.8438
   916     9.1541    37460(194)         36958.5781        34418.8398
   917     9.1641    37416(193)         36696.4922        34414.8359
   918     9.1741    37372(193)         36481.0117        34410.8320
   919     9.1841    36816(192)         36302.3789        34406.8281
   920     9.1941    36660(191)         36153.0625        34402.8203
   921     9.2041    36944(192)         36027.4609        34398.8164
   922     9.2141    37088(193)         35921.3516        34394.8125
   923     9.2241    36620(191)         35831.5820        34390.8086
   924     9.2341    36840(192)         35755.7344        34386.8047
   925     9.2441    36292(191)         35692.0313        34382.8008
   926     9.2541    36396(191)         35639.1445        34378.7930
   927     9.2641    36556(191)         35596.1289        34374.7891
   928     9.2741    36620(191)         35562.3594        34370.7852
   929     9.2841    36524(191)         35537.5000        34366.7813
   930     9.2941    36568(191)         35521.4883        34362.7773
   931     9.3041    36200(190)         35514.5508        34358.7734
   932     9.3141    36516(191)         35517.2148        34354.7695
   933     9.3241    36416(191)         35589.7656        34350.7617
   934     9.3341    36408(191)         35616.6523        34346.7578
   935     9.3441    36196(190)         35657.3516        34342.7539
   936     9.3541    36416(191)         35725.3594        34349.5859
   937     9.3641    36336(191)         35813.6133        34356.4180
   938     9.3741    36540(191)         35927.5273        34363.2500
   939     9.3841    36860(192)         36075.2930        34370.0820
   940     9.3941    37120(193)         36270.1094        34376.9141
   941     9.4041    37124(193)         36280.8516        34383.7461
   942     9.4141    37684(194)         36662.9297        34390.5781
   943     9.4241    37748(194)         37224.7656        34397.4102
   944     9.4341    38828(197)         38091.2383        34404.2422
   945     9.4441    40416(201)         39526.3906        34411.0742
   946     9.4541    43544(209)         42281.3711        34417.9063
   947     9.4641    49316(222)         48528.6250        34424.7422
   948     9.4741    61424(248)         62578.5234        34431.5703
   949     9.4841    82412(287)         87850.2344        34438.4063
   950     9.4941    113068(336)        118859.9530        34445.2383
   951     9.5041    130848(362)        136446.1720        34452.0703
   952     9.5141    118480(344)        121247.5780        34458.9023
   953     9.5241    85044(292)         87942.1406        34465.7344
   954     9.5341    60260(245)         61536.0859        34472.5664
   955     9.5441    47812(219)         47335.5234        34479.3984
   956     9.5541    42424(206)         41215.2148        34486.2305
   957     9.5641    39532(199)         38853.4688        34493.0625
   958     9.5741    38360(196)         37884.2461        34499.8945
   959     9.5841    37580(194)         37347.3281        34506.7266
   960     9.5941    37348(193)         36946.2148        34513.5586
   961     9.6041    36716(192)         36615.2031        34520.3906
   962     9.6141    36628(191)         36343.2422        34527.2227
   963     9.6241    36452(191)         36125.0859        34534.0547
   964     9.6341    36168(190)         35953.2969        34540.8867
   965     9.6441    35944(190)         35819.4531        34547.7188
   966     9.6541    36216(190)         35715.8320        34554.5508
   967     9.6641    35532(188)         35636.2383        34561.3828
   968     9.6741    35812(189)         35507.2109        34568.2188
   969     9.6841    36024(190)         35464.8984        34575.0469
   970     9.6941    36120(190)         35435.9063        34581.8828
   971     9.7041    35832(189)         35418.4844        34588.7148
   972     9.7141    35700(189)         35411.4688        34595.5469
   973     9.7241    35556(189)         35414.1523        34602.3789
   974     9.7341    36060(190)         35426.2070        34609.2109
   975     9.7441    35904(189)         35447.6875        34616.0430
   976     9.7541    36016(190)         35478.9883        34622.8750
   977     9.7641    35744(189)         35520.9102        34629.7070
   978     9.7741    36024(190)         35574.6797        34636.5391
   979     9.7841    35884(189)         35642.0898        34643.3711
   980     9.7941    35996(190)         35725.6289        34650.2031
   981     9.8041    36168(190)         35828.7148        34657.0352
   982     9.8141    36384(191)         35956.0938        34663.8672
   983     9.8241    36404(191)         36114.5195        34670.6992
   984     9.8341    36752(192)         36313.9609        34677.5313
   985     9.8441    36640(191)         36570.1484        34684.3633
   986     9.8541    37216(193)         36909.5234        34691.1953
   987     9.8641    37736(194)         37378.5273        34698.0273
   988     9.8741    38788(197)         38058.5430        34704.8594
   989     9.8841    39540(199)         39092.7734        34711.6953
   990     9.8941    41824(205)         40767.1641        34718.5234
   991     9.9041    45384(213)         43855.1016        34725.3594
   992     9.9141    53896(232)         50672.3047        34732.1914
   993     9.9241    69724(264)         66384.7734        34739.0234
   994     9.9341    99252(315)         96603.4688        34745.8555
   995     9.9441    140176(374)        137772.3750        34752.6875
   996     9.9541    174212(417)        168377.5780        34759.5195
   997     9.9641    163320(404)        158557.5000        34766.3516
   998     9.9741    117392(343)        116188.0940        34773.1836
   999     9.9841    74684(273)         77460.5156        34780.0156
  1000     9.9941    53044(230)         55026.7891        34786.8477
  1001    10.0041    43884(209)         44895.3633        34793.6797
  1002    10.0141    40388(201)         40907.2266        34800.5117
  1003    10.0241    38168(195)         39310.3242        34807.3438
  1004    10.0341    37708(194)         38483.5938        34814.1758
  1005    10.0441    36676(192)         37894.5664        34821.0078
  1006    10.0541    36680(192)         37413.6133        34827.8398
  1007    10.0641    36136(190)         37016.0195        34834.6719
  1008    10.0741    36136(190)         36692.5547        34841.5039
  1009    10.0841    35700(189)         36432.6406        34848.3359
  1010    10.0941    35908(189)         36224.3672        34855.1719
  1011    10.1041    35752(189)         36056.6992        34862.0000
  1012    10.1141    35512(188)         35920.5547        34868.8359
  1013    10.1241    35336(188)         35808.9492        34875.6680
  1014    10.1341    35388(188)         35716.6094        34882.5000
  1015    10.1441    35124(187)         35639.5898        34889.3320
  1016    10.1541    35236(188)         35531.5977        34896.1641
  1017    10.1641    35000(187)         35478.1797        34902.9961
  1018    10.1741    35336(188)         35432.9180        34909.8281
  1019    10.1841    35160(188)         35394.4102        34916.6602
  1020    10.1941    35496(188)         35361.5352        34923.4922
  1021    10.2041    34668(186)         35333.3984        34930.3242
  1022    10.2141    35208(188)         35302.9141        34930.7930
  1023    10.2241    35144(187)         35275.8594        34931.2617
  1024    10.2341    35424(188)         35251.7422        34931.7305
  1025    10.2441    35080(187)         35230.1602        34932.1992
  1026    10.2541    35288(188)         35210.7773        34932.6680
  1027    10.2641    34940(187)         35193.3125        34933.1367
  1028    10.2741    35136(187)         35177.5234        34933.6055
  1029    10.2841    35092(187)         35163.2109        34934.0742
  1030    10.2941    35296(188)         35150.2031        34934.5430
  1031    10.3041    35080(187)         35138.3438        34935.0117
  1032    10.3141    35088(187)         35127.5156        34935.4805
  1033    10.3241    34792(187)         35117.6055        34935.9531
  1034    10.3341    35240(188)         35108.5078        34936.4219
  1035    10.3441    35076(187)         35100.1484        34936.8906
  1036    10.3541    35148(187)         35092.4492        34937.3594
  1037    10.3641    35216(188)         35085.3477        34937.8281
  1038    10.3741    35048(187)         35078.7852        34938.2969
  1039    10.3841    34944(187)         35072.7148        34938.7656
  1040    10.3941    34892(187)         35067.0898        34939.2344
  1041    10.4041    35020(187)         35061.8711        34939.7031
  1042    10.4141    35244(188)         35057.0234        34940.1719
  1043    10.4241    35044(187)         35052.5156        34940.6406
  1044    10.4341    34904(187)         35048.3203        34941.1094
  1045    10.4441    34800(187)         35044.4102        34941.5781
  1046    10.4541    34940(187)         35040.7617        34942.0469
  1047    10.4641    34904(187)         35037.3555        34942.5156
  1048    10.4741    35204(188)         35034.1719        34942.9844
  1049    10.4841    35116(187)         35031.1953        34943.4531
  1050    10.4941    35224(188)         35028.4102        34943.9219
  1051    10.5041    35048(187)         35025.8047        34944.3906
  1052    10.5141    35104(187)         35023.3633        34944.8594
  1053    10.5241    35348(188)         35021.0742        34945.3281
  1054    10.5341    35260(188)         35018.9297        34945.7969
  1055    10.5441    35088(187)         35016.9180        34946.2695
  1056    10.5541    35016(187)         35015.0313        34946.7383
  1057    10.5641    34804(187)         35013.2578        34947.2070
  1058    10.5741    34928(187)         35011.5938        34947.6758
  1059    10.5841    34872(187)         35010.0313        34948.1445
  1060    10.5941    34972(187)         35008.5625        34948.6133
  1061    10.6041    34820(187)         34949.0820        34949.0820
  1062    10.6141    34936(187)         34949.5508        34949.5508
  1063    10.6241    34800(187)         34950.0195        34950.0195
  1064    10.6341    35128(187)         34957.6328        34950.4883
  1065    10.6441    34864(187)         34958.3320        34950.9570
  1066    10.6541    35204(188)         34959.0430        34951.4258
  1067    10.6641    35072(187)         34959.7656        34951.8945
  1068    10.6741    35324(188)         34960.5039        34952.3633
  1069    10.6841    35044(187)         34961.2539        34952.8320
  1070    10.6941    35200(188)         34962.0156        34953.3008
  1071    10.7041    34976(187)         34962.7969        34953.7695
  1072    10.7141    35196(188)         34963.5938        34954.2383
  1073    10.7241    34988(187)         34964.4102        34954.7070
  1074    10.7341    35228(188)         34965.2461        34955.1758
  1075    10.7441    34948(187)         34966.1016        34955.6445
  1076    10.7541    35140(187)         34966.9844        34956.1172
  1077    10.7641    34984(187)         34967.8867        34956.5859
  1078    10.7741    35172(188)         34968.8164        34957.0547
  1079    10.7841    34972(187)         34969.7773        34957.5234
  1080    10.7941    35212(188)         34970.7656        34957.9922
  1081    10.8041    35000(187)         34971.7891        34958.4609
  1082    10.8141    35172(188)         34984.7734        34958.9297
  1083    10.8241    34884(187)         34986.2578        34959.3984
  1084    10.8341    35176(188)         34987.8086        34959.8672
  1085    10.8441    35008(187)         34989.4258        34960.3359
  1086    10.8541    35020(187)         34991.1133        34960.8047
  1087    10.8641    34684(186)         34992.8867        34961.2734
  1088    10.8741    35096(187)         34991.3711        34958.3672
  1089    10.8841    35024(187)         34989.9570        34955.4648
  1090    10.8941    35128(187)         34988.6484        34952.5586
  1091    10.9041    35028(187)         34987.4570        34949.6523
  1092    10.9141    34876(187)         34986.3984        34946.7500
  1093    10.9241    34920(187)         34985.4766        34943.8438
  1094    10.9341    35032(187)         34984.7188        34940.9375
  1095    10.9441    34784(187)         34984.1406        34938.0352
  1096    10.9541    35132(187)         34983.7539        34935.1289
  1097    10.9641    35076(187)         34983.5938        34932.2227
  1098    10.9741    35116(187)         34983.6875        34929.3203
  1099    10.9841    34804(187)         34984.0625        34926.4141
  1100    10.9941    35156(187)         34984.7578        34923.5078
  1101    11.0041    35140(187)         34985.8281        34920.6055
  1102    11.0141    35184(188)         34987.3125        34917.6992
  1103    11.0241    34976(187)         34989.2813        34914.7930
  1104    11.0341    35284(188)         34991.8203        34911.8906
  1105    11.0441    34836(187)         34995.0117        34908.9844
  1106    11.0541    35148(187)         34998.9805        34906.0781
  1107    11.0641    35012(187)         35003.8633        34903.1758
  1108    11.0741    35200(188)         35009.8438        34900.2695
  1109    11.0841    34936(187)         35017.1406        34897.3633
  1110    11.0941    35084(187)         35026.0508        34894.4609
  1111    11.1041    35000(187)         35036.9375        34891.5547
  1112    11.1141    35160(188)         35050.3047        34888.6484
  1113    11.1241    35052(187)         35066.8086        34885.7461
  1114    11.1341    35156(187)         35087.3789        34882.8398
  1115    11.1441    34840(187)         35113.3711        34879.9336
  1116    11.1541    35380(188)         35146.9219        34877.0313
  1117    11.1641    35024(187)         35191.5820        34874.1250
  1118    11.1741    35312(188)         35253.4883        34871.2188
  1119    11.1841    35348(188)         35343.3008        34868.3164
  1120    11.1941    35708(189)         35480.0195        34865.4102
  1121    11.2041    35608(189)         35704.5234        34862.5039
  1122    11.2141    36196(190)         36149.5859        34859.6016
  1123    11.2241    36968(192)         37128.1758        34856.6953
  1124    11.2341    38996(197)         39331.3320        34853.7891
  1125    11.2441    42056(205)         43304.7891        34850.8867
  1126    11.2541    46732(216)         48227.6758        34847.9805
  1127    11.2641    48516(220)         51103.0820        34845.0742
  1128    11.2741    46972(217)         48819.2031        34842.1719
  1129    11.2841    42220(205)         43640.1680        34839.2656
  1130    11.2941    39088(198)         39459.8555        34836.3594
  1131    11.3041    37068(193)         37172.3164        34833.4570
  1132    11.3141    36560(191)         36186.9141        34830.5508
  1133    11.3241    35840(189)         35826.4063        34827.6445
  1134    11.3341    35896(189)         35707.6992        34824.7422
  1135    11.3441    35548(189)         35678.8945        34821.8359
  1136    11.3541    35616(189)         35700.7305        34818.9297
  1137    11.3641    35828(189)         35777.3203        34816.0273
  1138    11.3741    36208(190)         35933.4414        34813.1211
  1139    11.3841    36340(191)         36223.7930        34810.2148
  1140    11.3941    37324(193)         36801.8984        34807.3125
  1141    11.4041    38356(196)         38131.4063        34804.4063
  1142    11.4141    41420(204)         41239.1992        34801.5000
  1143    11.4241    46848(216)         47233.4063        34798.5977
  1144    11.4341    55444(235)         55419.1016        34795.6914
  1145    11.4441    61692(248)         61541.7031        34792.7852
  1146    11.4541    60212(245)         59627.5313        34789.8828
  1147    11.4641    50772(225)         51274.0039        34786.9766
  1148    11.4741    43184(208)         43571.7969        34784.0703
  1149    11.4841    38932(197)         39036.0352        34781.1680
  1150    11.4941    37320(193)         36954.7813        34778.2617
  1151    11.5041    36428(191)         36122.9648        34775.3555
  1152    11.5141    36000(190)         35781.2773        34772.4531
  1153    11.5241    35504(188)         35600.1680        34769.5469
  1154    11.5341    35860(189)         35472.0977        34766.6406
  1155    11.5441    35520(188)         35369.9102        34763.7383
  1156    11.5541    35844(189)         35287.1328        34760.8320
  1157    11.5641    35544(189)         35220.8516        34757.9258
  1158    11.5741    35676(189)         35168.3633        34755.0234
  1159    11.5841    35180(188)         35127.0742        34752.1172
  1160    11.5941    35620(189)         35094.7578        34749.2109
  1161    11.6041    35528(188)         35069.6875        34746.3086
  1162    11.6141    35316(188)         35050.5820        34743.4023
  1163    11.6241    35432(188)         35036.5586        34740.4961
  1164    11.6341    35588(189)         35027.0469        34737.5938
  1165    11.6441    35172(188)         35021.6992        34734.6875
  1166    11.6541    35588(189)         35020.3906        34731.7813
  1167    11.6641    35588(189)         35023.2031        34728.8789
  1168    11.6741    35720(189)         35030.3984        34725.9727
  1169    11.6841    35504(188)         35042.4805        34723.0664
  1170    11.6941    35668(189)         35060.2383        34720.1641
  1171    11.7041    35104(187)         35084.8359        34717.2578
  1172    11.7141    35420(188)         35133.2578        34729.6133
  1173    11.7241    35380(188)         35192.8672        34741.9688
  1174    11.7341    35644(189)         35267.8711        34754.3242
  1175    11.7441    35640(189)         35365.3750        34766.6797
  1176    11.7541    36044(190)         35497.7031        34779.0352
  1177    11.7641    35780(189)         35686.3086        34791.3906
  1178    11.7741    36408(191)         35969.6523        34803.7461
  1179    11.7841    36796(192)         36431.9844        34816.1016
  1180    11.7941    38024(195)         37319.3984        34828.4570
  1181    11.8041    39652(199)         39339.8672        34840.8125
  1182    11.8141    43432(208)         43874.4375        34853.1680
  1183    11.8241    49320(222)         52002.0781        34865.5234
  1184    11.8341    57860(241)         61994.2109        34877.8789
  1185    11.8441    62144(249)         67704.4688        34890.2344
  1186    11.8541    58656(242)         62909.2344        34902.5898
  1187    11.8641    49500(222)         52383.3125        34914.9453
  1188    11.8741    42736(207)         43909.2031        34927.3008
  1189    11.8841    38668(197)         39241.6797        34939.6563
  1190    11.8941    37592(194)         37191.8203        34952.0117
  1191    11.9041    36560(191)         36389.6719        34964.3672
  1192    11.9141    36420(191)         36046.8672        34976.7227
  1193    11.9241    35836(189)         35860.6211        34989.0781
  1194    11.9341    35872(189)         35726.8203        35001.4336
  1195    11.9441    35596(189)         35646.5391        35013.7891
  1196    11.9541    35860(189)         35564.4063        35026.1445
  1197    11.9641    35772(189)         35500.9063        35038.5000
  1198    11.9741    35900(189)         35452.5938        35050.8555
  1199    11.9841    35660(189)         35416.2773        35063.2109
  1200    11.9941    35756(189)         35389.2852        35075.5664
  1201    12.0041    35416(188)         35369.5156        35087.9219
  1202    12.0141    35744(189)         35355.3906        35100.2773
  1203    12.0241    35584(189)         35345.7344        35112.6328
  1204    12.0341    35632(189)         35339.6445        35124.9883
  1205    12.0441    35744(189)         35336.4609        35137.3438
  1206    12.0541    35908(189)         35335.6563        35149.6992
  1207    12.0641    35596(189)         35336.8359        35162.0547
  1208    12.0741    35612(189)         35339.6836        35174.4102
  1209    12.0841    35596(189)         35343.9453        35186.7656
  1210    12.0941    35636(189)         35337.7969        35199.1211
  1211    12.1041    35604(189)         35344.6953        35211.4766
  1212    12.1141    35540(189)         35352.5664        35223.8320
  1213    12.1241    35392(188)         35361.1992        35236.1875
  1214    12.1341    35480(188)         35471.2773        35248.5430
  1215    12.1441    35716(189)         35484.5898        35260.8984
  1216    12.1541    35912(190)         35498.6836        35273.2539
  1217    12.1641    35648(189)         35513.5313        35285.6094
  1218    12.1741    35804(189)         35529.1133        35297.9648
  1219    12.1841    35664(189)         35545.4258        35310.3203
  1220    12.1941    35908(189)         35562.4766        35322.6758
  1221    12.2041    35724(189)         35580.2695        35335.0313
  1222    12.2141    36152(190)         35598.8320        35347.3867
  1223    12.2241    35676(189)         35618.1953        35359.7422
  1224    12.2341    35964(190)         35638.3984        35372.0977
  1225    12.2441    35464(188)         35659.4922        35384.4531
  1226    12.2541    36080(190)         35683.7461        35399.0156
  1227    12.2641    35752(189)         35709.0313        35413.5781
  1228    12.2741    36124(190)         35735.4375        35428.1406
  1229    12.2841    35784(189)         35763.0664        35442.6992
  1230    12.2941    36344(191)         35792.0586        35457.2617
  1231    12.3041    35944(190)         35822.5547        35471.8242
  1232    12.3141    36028(190)         35854.7813        35486.3867
  1233    12.3241    35952(190)         35888.8633        35500.9492
  1234    12.3341    36180(190)         35925.1016        35515.5117
  1235    12.3441    35940(190)         35963.8047        35530.0742
  1236    12.3541    36524(191)         36005.3320        35544.6328
  1237    12.3641    36092(190)         36050.1563        35559.1953
  1238    12.3741    36484(191)         36098.8320        35573.7578
  1239    12.3841    36268(190)         36152.0547        35588.3203
  1240    12.3941    36444(191)         36210.6953        35602.8828
  1241    12.4041    36096(190)         36275.8711        35617.4453
  1242    12.4141    36556(191)         36349.0234        35632.0078
  1243    12.4241    36436(191)         36432.0430        35646.5703
  1244    12.4341    37032(192)         36527.4531        35661.1289
  1245    12.4441    36700(192)         36638.8203        35675.6914
  1246    12.4541    37116(193)         36771.3203        35690.2539
  1247    12.4641    36956(192)         36933.0625        35704.8164
  1248    12.4741    37140(193)         37137.4336        35719.3789
  1249    12.4841    37212(193)         37407.3828        35733.9414
  1250    12.4941    37800(194)         37768.3047        35748.5039
  1251    12.5041    38400(196)         38320.3984        35763.0664
  1252    12.5141    39728(199)         39214.6797        35777.6289
  1253    12.5241    41468(204)         40947.0508        35792.1875
  1254    12.5341    45320(213)         44886.3086        35806.7500
  1255    12.5441    51856(228)         53462.9023        35821.3125
  1256    12.5541    64336(254)         68081.9141        35835.8750
  1257    12.5641    80372(283)         84821.8125        35850.4375
  1258    12.5741    87908(296)         92430.2266        35865.0000
  1259    12.5841    77388(278)         82166.6094        35879.5625
  1260    12.5941    59548(244)         64512.2969        35894.1250
  1261    12.6041    48280(220)         51256.0703        35908.6836
  1262    12.6141    43436(208)         44292.0586        35923.2461
  1263    12.6241    41116(203)         41448.7266        35937.8086
  1264    12.6341    40668(202)         40545.8945        35952.3711
  1265    12.6441    40256(201)         40410.5430        35966.9336
  1266    12.6541    40540(201)         40612.4609        35981.4961
  1267    12.6641    40848(202)         41072.8945        35996.0547
  1268    12.6741    41840(205)         41859.5938        36010.6172
  1269    12.6841    43272(208)         43139.0391        36025.1797
  1270    12.6941    46388(215)         45241.0234        36039.7422
  1271    12.7041    51260(226)         49000.9062        36054.3047
  1272    12.7141    61508(248)         56983.5820        36068.8672
  1273    12.7241    80536(284)         75767.6250        36083.4258
  1274    12.7341    120152(347)        115334.7190        36097.9883
  1275    12.7441    182720(427)        177947.5310        36112.5508
  1276    12.7541    252256(502)        241082.6560        36127.1133
  1277    12.7641    261820(512)        255481.4220        36141.6758
  1278    12.7741    202972(451)        201261.4530        36156.2383
  1279    12.7841    126308(355)        131338.6410        36170.8008
  1280    12.7941    78724(281)         83392.9688        36185.3633
  1281    12.8041    56884(239)         59136.2422        36199.9258
  1282    12.8141    48332(220)         48961.6836        36214.4844
  1283    12.8241    43808(209)         44914.0664        36229.0469
  1284    12.8341    42148(205)         43014.3594        36243.6094
  1285    12.8441    40412(201)         41810.1328        36258.1719
  1286    12.8541    39920(200)         40892.1367        36272.7344
  1287    12.8641    39232(198)         40157.6016        36287.2969
  1288    12.8741    39040(198)         39569.8125        36301.8594
  1289    12.8841    38552(196)         39102.2656        36316.4219
  1290    12.8941    38272(196)         38731.2461        36330.9805
  1291    12.9041    37840(195)         38437.2930        36345.5430
  1292    12.9141    38260(196)         38207.4023        36360.1055
  1293    12.9241    38484(196)         38033.4453        36374.6680
  1294    12.9341    39312(198)         37904.6602        36389.2305
  1295    12.9441    39276(198)         37798.8906        36403.7930
  1296    12.9541    39204(198)         37685.4063        36418.3555
  1297    12.9641    38324(196)         37559.5703        36432.9180
  1298    12.9741    38032(195)         37446.9375        36447.4766
  1299    12.9841    37824(194)         37358.7227        36462.0391
  1300    12.9941    37588(194)         37291.5352        36476.6016
  1301    13.0041    37280(193)         37251.1016        36491.1641
  1302    13.0141    37224(193)         37208.4648        36505.7266
  1303    13.0241    36832(192)         37172.8320        36520.2891
  1304    13.0341    37088(193)         37142.7734        36534.8516
  1305    13.0441    36968(192)         37117.4141        36549.4141
  1306    13.0541    37160(193)         37096.1094        36563.9727
  1307    13.0641    36816(192)         37078.3516        36578.5352
  1308    13.0741    37088(193)         37063.6875        36593.0977
  1309    13.0841    36864(192)         37051.7500        36607.6602
  1310    13.0941    37036(192)         37042.2188        36622.2227
  1311    13.1041    36964(192)         37034.8281        36636.7852
  1312    13.1141    37428(193)         37029.3359        36651.3438
  1313    13.1241    36788(192)         37025.5508        36665.9063
  1314    13.1341    37252(193)         37023.2969        36680.4688
  1315    13.1441    36752(192)         37022.4297        36695.0313
  1316    13.1541    37012(192)         37021.4336        36708.2148
  1317    13.1641    37052(192)         37021.5703        36721.3945
  1318    13.1741    37192(193)         37022.7578        36734.5781
  1319    13.1841    36980(192)         37024.8945        36747.7578
  1320    13.1941    36968(192)         37027.9102        36760.9375
  1321    13.2041    36852(192)         37031.7461        36774.1211
  1322    13.2141    36896(192)         37036.3359        36787.3008
  1323    13.2241    36788(192)         37017.9414        36800.4844
  1324    13.2341    37340(193)         37024.6250        36813.6641
  1325    13.2441    37168(193)         37031.9102        36826.8477
  1326    13.2541    37116(193)         37039.7617        36840.0273
  1327    13.2641    36948(192)         37048.1719        36853.2109
  1328    13.2741    37100(193)         37057.1094        36866.3906
  1329    13.2841    37112(193)         37066.5625        36879.5703
  1330    13.2941    37236(193)         37076.5391        36892.7539
  1331    13.3041    36928(192)         37101.7422        36905.9336
  1332    13.3141    37132(193)         37113.2148        36919.1172
  1333    13.3241    36912(192)         37125.2305        36932.2969
  1334    13.3341    37056(192)         37137.8203        36945.4805
  1335    13.3441    37128(193)         37151.0000        36958.6602
  1336    13.3541    37392(193)         37164.8086        36971.8398
  1337    13.3641    37256(193)         37179.2969        36985.0234
  1338    13.3741    37572(194)         37194.5117        36998.2031
  1339    13.3841    37364(193)         37210.5352        37011.3867
  1340    13.3941    37312(193)         37227.3945        37024.5664
  1341    13.4041    37160(193)         37147.8828        37037.7500
  1342    13.4141    37556(194)         37169.9258        37050.9297
  1343    13.4241    37688(194)         37193.1602        37064.1133
  1344    13.4341    37820(194)         37217.8125        37077.2930
  1345    13.4441    37452(194)         37244.1680        37090.4727
  1346    13.4541    37752(194)         37272.6055        37103.6563
  1347    13.4641    37796(194)         37303.5820        37116.8359
  1348    13.4741    37984(195)         37337.7109        37130.0195
  1349    13.4841    37700(194)         37375.8086        37143.1992
  1350    13.4941    38080(195)         37418.9727        37156.3828
  1351    13.5041    37792(194)         37468.7344        37169.5625
  1352    13.5141    37852(195)         37527.3438        37182.7461
  1353    13.5241    37968(195)         37598.2773        37195.9258
  1354    13.5341    38120(195)         37687.2891        37209.1055
  1355    13.5441    37932(195)         37804.1406        37222.2891
  1356    13.5541    38372(196)         37965.6094        37235.4688
  1357    13.5641    38192(195)         38201.7695        37248.6523
  1358    13.5741    39144(198)         38579.0625        37261.8320
  1359    13.5841    39920(200)         39292.4258        37275.0156
  1360    13.5941    41404(203)         40903.3203        37288.1953
  1361    13.6041    43936(210)         44522.1367        37301.3750
  1362    13.6141    49368(222)         51087.3633        37314.5586
  1363    13.6241    55276(235)         59395.7109        37327.7383
  1364    13.6341    59832(245)         64637.8594        37340.9219
  1365    13.6441    57412(240)         61377.3203        37354.1016
  1366    13.6541    51328(227)         52830.9883        37367.2852
  1367    13.6641    45020(212)         45552.3945        37380.4648
  1368    13.6741    41704(204)         41378.6953        37393.6484
  1369    13.6841    39636(199)         39494.3789        37406.8281
  1370    13.6941    39036(198)         38750.7227        37420.0078
  1371    13.7041    38820(197)         38446.7695        37433.1914
  1372    13.7141    38800(197)         38288.5664        37446.3711
  1373    13.7241    38424(196)         38183.3789        37459.5547
  1374    13.7341    38488(196)         38107.0586        37472.7344
  1375    13.7441    38252(196)         38052.7148        37485.9180
  1376    13.7541    38248(196)         38016.7969        37499.0977
  1377    13.7641    38144(195)         37996.5273        37512.2813
  1378    13.7741    38340(196)         37989.6797        37525.4609
  1379    13.7841    38036(195)         37994.7461        37538.6406
  1380    13.7941    38124(195)         38011.0117        37551.8242
  1381    13.8041    37944(195)         38038.5898        37565.0039
  1382    13.8141    38304(196)         38282.3555        37578.1875
  1383    13.8241    38468(196)         38343.5391        37591.3672
  1384    13.8341    38896(197)         38424.0742        37604.5508
  1385    13.8441    38756(197)         38531.6758        37617.7305
  1386    13.8541    38916(197)         38679.8906        37630.9102
  1387    13.8641    38996(197)         38892.4492        37644.0938
  1388    13.8741    39588(199)         39213.8086        37657.2734
  1389    13.8841    40060(200)         39752.4414        37670.4570
  1390    13.8941    41692(204)         40838.7539        37683.6367
  1391    13.9041    44088(210)         43353.2461        37696.8203
  1392    13.9141    49412(222)         48758.7813        37710.0000
  1393    13.9241    56736(238)         57725.1055        37723.1836
  1394    13.9341    66976(259)         67608.1406        37736.3633
  1395    13.9441    71548(267)         71487.9531        37749.5430
  1396    13.9541    65780(256)         64770.7734        37762.7266
  1397    13.9641    53932(232)         54190.7109        37775.9063
  1398    13.9741    45740(214)         46334.9258        37789.0898
  1399    13.9841    41696(204)         42152.9727        37802.2695
  1400    13.9941    40184(200)         40353.1875        37815.4531
  1401    14.0041    39520(199)         39651.6836        37828.6328
  1402    14.0141    39480(199)         39351.6875        37841.8164
  1403    14.0241    39084(198)         39184.3828        37854.9961
  1404    14.0341    39148(198)         39070.0742        37868.1758
  1405    14.0441    38760(197)         38988.0352        37881.3594
  1406    14.0541    38932(197)         38938.5742        37901.8594
  1407    14.0641    38844(197)         38909.9688        37922.3555
  1408    14.0741    39200(198)         38898.5039        37942.8555
  1409    14.0841    38800(197)         38901.0977        37963.3555
  1410    14.0941    38892(197)         38915.3359        37983.8555
  1411    14.1041    38796(197)         38939.4805        38004.3516
  1412    14.1141    39172(198)         38972.3516        38024.8516
  1413    14.1241    39200(198)         39013.1992        38045.3516
  1414    14.1341    39256(198)         39061.6133        38065.8516
  1415    14.1441    39128(198)         39117.4648        38086.3477
  1416    14.1541    39348(198)         39180.8750        38106.8477
  1417    14.1641    39060(198)         39252.1680        38127.3477
  1418    14.1741    39308(198)         39331.8867        38147.8477
  1419    14.1841    39148(198)         39420.7813        38168.3438
  1420    14.1941    39292(198)         39519.8789        38188.8438
  1421    14.2041    39384(198)         39630.4531        38209.3438
  1422    14.2141    39708(199)         39754.1250        38229.8398
  1423    14.2241    39460(199)         39892.9102        38250.3398
  1424    14.2341    39616(199)         40049.3438        38270.8398
  1425    14.2441    39964(200)         40226.5781        38291.3359
  1426    14.2541    40164(200)         40428.5898        38311.8359
  1427    14.2641    40356(201)         40662.0000        38332.3359
  1428    14.2741    40564(201)         40930.1172        38352.8359
  1429    14.2841    40724(202)         41231.0508        38373.3320
  1430    14.2941    41472(204)         41599.7383        38393.8320
  1431    14.3041    41616(204)         42038.5859        38414.3320
  1432    14.3141    42336(206)         42567.4766        38434.8281
  1433    14.3241    42656(207)         43214.6641        38455.3281
  1434    14.3341    43540(209)         44021.8125        38475.8281
  1435    14.3441    44028(210)         45054.4492        38496.3281
  1436    14.3541    45492(213)         46420.8438        38516.8242
  1437    14.3641    47380(218)         48305.5117        38537.3242
  1438    14.3741    50480(225)         51024.8984        38557.8242
  1439    14.3841    54480(233)         55166.1211        38578.3242
  1440    14.3941    63696(252)         62139.1133        38598.8203
  1441    14.4041    79312(282)         76226.6484        38619.3203
  1442    14.4141    114120(338)        108978.9380        38639.8203
  1443    14.4241    179300(423)        180301.8130        38660.3203
  1444    14.4341    293916(542)        300883.0000        38680.8164
  1445    14.4441    421148(649)        438427.9060        38701.3164
  1446    14.4541    479292(692)        500994.4060        38721.8164
  1447    14.4641    404736(636)        417291.1880        38742.3164
  1448    14.4741    276472(526)        271212.6250        38762.8125
  1449    14.4841    167408(409)        158449.4690        38783.3125
  1450    14.4941    103300(321)         96736.9375        38803.8125
  1451    14.5041    73464(271)         69499.4688        38824.3125
  1452    14.5141    59940(245)         58584.4492        38844.8086
  1453    14.5241    53012(230)         53740.3828        38865.3086
  1454    14.5341    49604(223)         50901.4727        38885.8086
  1455    14.5441    47432(218)         48833.7734        38906.3047
  1456    14.5541    45920(214)         47209.4336        38926.8047
  1457    14.5641    44592(211)         45918.4102        38947.3047
  1458    14.5741    44240(210)         44893.6523        38967.8008
  1459    14.5841    42864(207)         44079.8086        38988.3008
  1460    14.5941    42728(207)         43415.6992        39008.8008
  1461    14.6041    42148(205)         42893.1172        39029.3008
  1462    14.6141    42196(205)         42468.4609        39049.7969
  1463    14.6241    41668(204)         42120.3125        39070.2969
  1464    14.6341    41472(204)         41832.6133        39090.7969
  1465    14.6441    41280(203)         41593.3242        39111.2930
  1466    14.6541    41284(203)         41393.2266        39131.7930
  1467    14.6641    41024(203)         41225.2891        39152.2930
  1468    14.6741    41200(203)         41084.0117        39172.7930
  1469    14.6841    40952(202)         40965.1055        39193.2891
  1470    14.6941    40868(202)         40865.1289        39213.7891
  1471    14.7041    40548(201)         40781.3828        39234.2891
  1472    14.7141    40608(202)         40749.3984        39254.7891
  1473    14.7241    40516(201)         40693.2617        39275.2852
  1474    14.7341    40856(202)         40648.1406        39295.7852
  1475    14.7441    40400(201)         40612.9805        39316.2852
  1476    14.7541    40548(201)         40586.9805        39336.7852
  1477    14.7641    40412(201)         40569.5898        39357.2852
  1478    14.7741    40604(202)         40560.5039        39377.7813
  1479    14.7841    40376(201)         40559.6992        39398.2813
  1480    14.7941    40668(202)         40567.5352        39418.7813
  1481    14.8041    40496(201)         40584.9219        39439.2813
  1482    14.8141    40612(202)         40613.6328        39459.7773
  1483    14.8241    40344(201)         40656.9141        39480.2773
  1484    14.8341    40724(202)         40721.4141        39500.7773
  1485    14.8441    40868(202)         40825.1133        39521.2734
  1486    14.8541    41324(203)         41021.3750        39541.7734
  1487    14.8641    41524(204)         41431.4688        39562.2734
  1488    14.8741    42888(207)         42203.9336        39582.7695
  1489    14.8841    43560(209)         43309.3672        39603.2695
  1490    14.8941    45304(213)         44301.0898        39623.7695
  1491    14.9041    45324(213)         44401.6484        39644.2656
  1492    14.9141    44400(211)         43564.2344        39664.7656
  1493    14.9241    42804(207)         42665.9727        39685.2656
  1494    14.9341    42308(206)         42168.4727        39705.7656
  1495    14.9441    42116(205)         42064.5273        39726.2617
  1496    14.9541    42596(206)         42222.1992        39746.7617
  1497    14.9641    42672(207)         42551.8477        39767.2617
  1498    14.9741    43620(209)         43036.5938        39787.7578
  1499    14.9841    44100(210)         43722.1172        39808.2578
  1500    14.9941    45880(214)         44744.2227        39828.7578
  1501    15.0041    48344(220)         46521.0859        39849.2578
  1502    15.0141    53976(232)         50370.8750        39869.7578
  1503    15.0241    63864(253)         59552.9453        39890.2539
  1504    15.0341    84240(290)         79138.9219        39910.7539
  1505    15.0441    115868(340)        111639.0780        39931.2539
  1506    15.0541    150576(388)        148440.7030        39951.7539
  1507    15.0641    161260(402)        163820.3440        39972.2500
  1508    15.0741    137364(371)        141291.2970        39992.7500
  1509    15.0841    99140(315)        103851.6250        40013.2500
  1510    15.0941    71172(267)         73968.2578        40033.7500
  1511    15.1041    56060(237)         56874.2773        40054.2461
  1512    15.1141    49520(223)         49282.8789        40074.7461
  1513    15.1241    46120(215)         46123.2266        40095.2461
  1514    15.1341    44848(212)         44625.8789        40115.7461
  1515    15.1441    43780(209)         43747.6563        40136.2422
  1516    15.1541    43160(208)         43162.5117        40156.7422
  1517    15.1641    42664(207)         42755.3984        40177.2422
  1518    15.1741    42512(206)         42470.5508        40197.7383
  1519    15.1841    42012(205)         42275.2383        40218.2383
  1520    15.1941    42284(206)         42149.2188        40238.7383
  1521    15.2041    41724(204)         42080.3633        40259.2344
  1522    15.2141    42140(205)         42062.2695        40279.7344
  1523    15.2241    41724(204)         42093.1836        40300.2344
  1524    15.2341    42124(205)         42175.8281        40320.7344
  1525    15.2441    41604(204)         42318.0703        40341.2305
  1526    15.2541    42052(205)         42534.6992        40361.7305
  1527    15.2641    42592(206)         42851.3828        40382.2305
  1528    15.2741    43264(208)         43315.6992        40402.7266
  1529    15.2841    44124(210)         44053.6172        40423.2266
  1530    15.2941    46224(215)         45398.7852        40443.7266
  1531    15.3041    49816(223)         48439.1836        40464.2266
  1532    15.3141    59092(243)         55659.9414        40484.7227
  1533    15.3241    75940(276)         70448.0391        40505.2227
  1534    15.3341    104148(323)         93515.2500        40525.7227
  1535    15.3441    128940(359)        116980.4380        40546.2227
  1536    15.3541    131724(363)        122416.5000        40566.7188
  1537    15.3641    107444(328)        103848.0940        40587.2187
  1538    15.3741    78400(280)         78986.3672        40607.7188
  1539    15.3841    59404(244)         60588.4453        40628.2188
  1540    15.3941    50412(225)         50678.9844        40648.7148
  1541    15.4041    45932(214)         46330.9883        40669.2148
  1542    15.4141    44428(211)         44492.3438        40689.7148
  1543    15.4241    43164(208)         43575.1680        40710.2148
  1544    15.4341    42860(207)         43010.0664        40730.7109
  1545    15.4441    42320(206)         42618.8320        40751.2109
  1546    15.4541    42308(206)         42334.6836        40771.7109
  1547    15.4641    41604(204)         42123.0898        40792.2109
  1548    15.4741    41824(205)         41962.7656        40812.7070
  1549    15.4841    41196(203)         41839.6797        40833.2070
  1550    15.4941    41372(203)         41744.3164        40853.7070
  1551    15.5041    41348(203)         41670.0117        40874.2031
  1552    15.5141    41580(204)         41612.0078        40894.7031
  1553    15.5241    41028(203)         41566.8398        40915.2031
  1554    15.5341    41232(203)         41531.9102        40935.6992
  1555    15.5441    40544(201)         41505.2852        40956.1992
  1556    15.5541    40820(202)         41490.7148        40976.6992
  1557    15.5641    40836(202)         41476.8320        40997.1992
  1558    15.5741    40764(202)         41467.7109        41017.6953
  1559    15.5841    40800(202)         41462.6602        41038.1953
  1560    15.5941    41140(203)         41461.1094        41058.6953
  1561    15.6041    40464(201)         41462.6211        41079.1914
  1562    15.6141    40640(202)         41466.8359        41099.6914
  1563    15.6241    40700(202)         41473.4844        41120.1914
  1564    15.6341    40820(202)         41482.3398        41140.6914
  1565    15.6441    40588(201)         41493.2422        41161.1875
  1566    15.6541    40980(202)         41506.0820        41181.6875
  1567    15.6641    40284(201)         41520.7773        41202.1875
  1568    15.6741    40688(202)         41526.0430        41211.4258
  1569    15.6841    40408(201)         41533.1406        41220.6641
  1570    15.6941    40708(202)         41542.1289        41229.9023
  1571    15.7041    40692(202)         41553.1016        41239.1406
  1572    15.7141    40876(202)         41526.4375        41248.3750
  1573    15.7241    40636(202)         41543.9648        41257.6133
  1574    15.7341    40828(202)         41564.2500        41266.8516
  1575    15.7441    40852(202)         41587.4102        41276.0898
  1576    15.7541    41172(203)         41614.1367        41285.3281
  1577    15.7641    40764(202)         41645.1563        41294.5664
  1578    15.7741    41248(203)         41670.5078        41292.8750
  1579    15.7841    40880(202)         41702.4492        41291.1836
  1580    15.7941    41112(203)         41742.7891        41289.4922
  1581    15.8041    41292(203)         41794.0664        41287.8047
  1582    15.8141    41512(204)         41859.8984        41286.1133
  1583    15.8241    41420(204)         41945.6055        41284.4219
  1584    15.8341    41744(204)         42059.2031        41282.7305
  1585    15.8441    41632(204)         42213.5039        41281.0391
  1586    15.8541    42052(205)         42432.3789        41279.3477
  1587    15.8641    42480(206)         42776.3008        41277.6602
  1588    15.8741    43592(209)         43435.2500        41275.9688
  1589    15.8841    45228(213)         44954.9688        41274.2773
  1590    15.8941    49248(222)         48461.1602        41272.5859
  1591    15.9041    55520(236)         55240.7422        41270.8945
  1592    15.9141    66768(258)         65058.6094        41269.2031
  1593    15.9241    77040(278)         73797.1797        41267.5156
  1594    15.9341    79544(282)         74138.3125        41265.8242
  1595    15.9441    69812(264)         65794.9375        41264.1328
  1596    15.9541    57792(240)         55898.3867        41262.4414
  1597    15.9641    49304(222)         48869.3203        41260.7500
  1598    15.9741    45312(213)         45158.1328        41259.0586
  1599    15.9841    43348(208)         43790.9414        41257.3711
  1600    15.9941    42868(207)         43099.0234        41255.6797
  1601    16.0041    41976(205)         42715.6953        41253.9883
  1602    16.0141    41956(205)         42505.1367        41252.2969
  1603    16.0241    41520(204)         42363.9570        41250.6055
  1604    16.0341    41848(205)         42266.8672        41248.9141
  1605    16.0441    41588(204)         42200.9297        41247.2227
  1606    16.0541    41860(205)         42158.4023        41245.5352
  1607    16.0641    41848(205)         42134.5938        41243.8438
  1608    16.0741    41812(204)         42126.8242        41242.1523
  1609    16.0841    41696(204)         42133.9414        41240.4609
  1610    16.0941    42100(205)         42156.1484        41238.7695
  1611    16.1041    42140(205)         42195.1172        41237.0781
  1612    16.1141    42448(206)         42254.4688        41235.3906
  1613    16.1241    42316(206)         42341.1328        41233.6992
  1614    16.1341    42736(207)         42470.8047        41232.0078
  1615    16.1441    42604(206)         42689.8672        41230.3164
  1616    16.1541    43616(209)         43144.7578        41228.6250
  1617    16.1641    44484(211)         44206.0625        41226.9336
  1618    16.1741    46628(216)         46480.4453        41225.2461
  1619    16.1841    49152(222)         50348.1484        41223.5547
  1620    16.1941    52448(229)         54975.3594        41221.8633
  1621    16.2041    53932(232)         57462.7188        41220.1719
  1622    16.2141    52752(230)         55300.1914        41218.4805
  1623    16.2241    49200(222)         50797.9688        41216.7891
  1624    16.2341    45988(214)         46958.0742        41215.0977
  1625    16.2441    44060(210)         44717.4922        41213.4102
  1626    16.2541    43276(208)         43739.2539        41211.7188
  1627    16.2641    42932(207)         43418.5703        41210.0273
  1628    16.2741    43296(208)         43380.4531        41208.3359
  1629    16.2841    43384(208)         43508.2031        41206.6445
  1630    16.2941    44260(210)         43756.6602        41204.9531
  1631    16.3041    44848(212)         44260.8320        41203.2656
  1632    16.3141    46940(217)         45413.8203        41201.5742
  1633    16.3241    50296(224)         48129.3828        41199.8828
  1634    16.3341    58544(242)         53674.2578        41198.1914
  1635    16.3441    70200(265)         62384.9297        41196.5000
  1636    16.3541    83640(289)         71507.1250        41194.8086
  1637    16.3641    87020(295)         74278.8750        41193.1172
  1638    16.3741    78020(279)         67867.4844        41191.4297
  1639    16.3841    63700(252)         58549.3281        41189.7383
  1640    16.3941    54048(232)         51392.7656        41188.0469
  1641    16.4041    48760(221)         47609.2930        41186.3555
  1642    16.4141    46816(216)         45949.5781        41184.6641
  1643    16.4241    45444(213)         45378.7930        41182.9727
  1644    16.4341    45156(212)         45245.1289        41181.2852
  1645    16.4441    44840(212)         45305.4453        41179.5937
  1646    16.4541    45080(212)         45488.3359        41177.9023
  1647    16.4641    45044(212)         45776.5313        41176.2109
  1648    16.4741    45764(214)         46171.2148        41174.5195
  1649    16.4841    45716(214)         46684.4570        41172.8281
  1650    16.4941    46596(216)         47338.6758        41171.1406
  1651    16.5041    46700(216)         48168.7891        41169.4492
  1652    16.5141    47932(219)         49226.8242        41167.7578
  1653    16.5241    48888(221)         50589.9805        41166.0664
  1654    16.5341    50616(225)         52374.5977        41164.3750
  1655    16.5441    52500(229)         54762.1406        41162.6836
  1656    16.5541    55972(237)         58069.2891        41160.9961
  1657    16.5641    60884(247)         63005.0508        41159.3047
  1658    16.5741    71804(268)         71704.8438        41157.6133
  1659    16.5841    92984(305)         90731.6563        41155.9219
  1660    16.5941    136912(370)        135802.9220        41154.2305
  1661    16.6041    222764(472)        230292.9690        41152.5391
  1662    16.6141    378932(616)        384318.0310        41150.8477
  1663    16.6241    560564(749)        555973.1250        41149.1602
  1664    16.6341    657892(811)        626496.6250        41147.4688
  1665    16.6441    543928(738)        521551.7190        41145.7773
  1666    16.6541    335668(579)        346101.3440        41144.0859
  1667    16.6641    186820(432)        204160.3750        41142.3945
  1668    16.6741    113104(336)        122512.6410        41140.7031
  1669    16.6841    81044(285)         85134.9141        41139.0156
  1670    16.6941    66652(258)         69383.6953        41137.3242
  1671    16.7041    59444(244)         61888.8320        41135.6328
  1672    16.7141    55688(236)         57449.7500        41133.9414
  1673    16.7241    52356(229)         54418.1836        41132.2500
  1674    16.7341    50684(225)         52218.4102        41130.5586
  1675    16.7441    49040(221)         50575.3828        41128.8711
  1676    16.7541    48168(219)         49325.1445        41127.1797
  1677    16.7641    47324(218)         48361.5625        41125.4883
  1678    16.7741    47028(217)         47613.6250        41123.7969
  1679    16.7841    46248(215)         47032.9141        41122.1055
  1680    16.7941    46168(215)         46586.3125        41120.4141
  1681    16.8041    45364(213)         46251.1719        41118.7266
  1682    16.8141    45564(213)         46013.1719        41117.0352
  1683    16.8241    45464(213)         45864.5664        41115.3438
  1684    16.8341    45628(214)         45803.9063        41113.6523
  1685    16.8441    45536(213)         45836.8164        41111.9609
  1686    16.8541    46004(214)         45979.1289        41110.2695
  1687    16.8641    45984(214)         46262.5273        41108.5781
  1688    16.8741    47020(217)         46811.8750        41106.8906
  1689    16.8841    48540(220)         47975.1094        41105.1992
  1690    16.8941    51844(228)         50690.3672        41103.5078
  1691    16.9041    57888(241)         56636.0547        41101.8164
  1692    16.9141    68636(262)         67223.7891        41100.1250
  1693    16.9241    80136(283)         80953.6094        41098.4336
  1694    16.9341    87908(296)         90663.5469        41096.7461
  1695    16.9441    83296(289)         87534.4844        41095.0547
  1696    16.9541    74312(273)         75625.7344        41093.3633
  1697    16.9641    64672(254)         64500.2422        41091.6719
  1698    16.9741    59176(243)         58212.3750        41089.9805
  1699    16.9841    57996(241)         56609.5625        41088.2891
  1700    16.9941    61816(249)         58676.8828        41086.6016
  1701    17.0041    71072(267)         65500.0391        41084.9102
  1702    17.0141    91000(302)         82875.5547        41083.2188
  1703    17.0241    129952(360)        122322.6410        41081.5273
  1704    17.0341    202712(450)        194125.5940        41079.8359
  1705    17.0441    299044(547)        289228.1250        41078.1445
  1706    17.0541    375968(613)        359092.0630        41076.4531
  1707    17.0641    353144(594)        338511.1250        41074.7656
  1708    17.0741    256448(506)        249206.0160        41073.0742
  1709    17.0841    162340(403)        159949.3750        41071.3828
  1710    17.0941    102972(321)        101537.5780        41069.6914
  1711    17.1041    73504(271)         72343.1484        41068.0000
  1712    17.1141    59980(245)         59815.8906        41066.3086
  1713    17.1241    53500(231)         54246.6094        41064.6211
  1714    17.1341    49992(224)         51211.6016        41062.9297
  1715    17.1441    47864(219)         49217.4453        41061.2383
  1716    17.1541    46640(216)         47781.8633        41059.5469
  1717    17.1641    45380(213)         46704.7500        41057.8555
  1718    17.1741    45120(212)         45875.0664        41056.1641
  1719    17.1841    44388(211)         45245.5078        41054.4766
  1720    17.1941    44408(211)         44723.3359        41052.7852
  1721    17.2041    43748(209)         44298.6680        41051.0938
  1722    17.2141    43600(209)         43948.4336        41049.4023
  1723    17.2241    43160(208)         43656.1758        41047.7109
  1724    17.2341    43360(208)         43409.7344        41046.0195
  1725    17.2441    42548(206)         43200.0000        41044.3281
  1726    17.2541    42936(207)         43020.0547        41042.6406
  1727    17.2641    42568(206)         42864.5586        41040.9492
  1728    17.2741    42452(206)         42729.3633        41039.2578
  1729    17.2841    41824(205)         42761.6328        41037.5664
  1730    17.2941    42092(205)         42411.8711        41035.8750
  1731    17.3041    41576(204)         42332.7461        41034.1836
  1732    17.3141    41724(204)         42264.2070        41032.4961
  1733    17.3241    41464(204)         42204.9336        41030.8047
  1734    17.3341    41440(204)         42153.8789        41029.1133
  1735    17.3441    41100(203)         42110.2070        41027.4219
  1736    17.3541    41304(203)         42073.2773        41025.7305
  1737    17.3641    40936(202)         42042.6094        41024.0391
  1738    17.3741    41424(204)         42017.8711        41022.3516
  1739    17.3841    40932(202)         41998.8711        41020.6602
  1740    17.3941    41160(203)         41985.5820        41018.9688
  1741    17.4041    40832(202)         41978.1445        41017.2773
  1742    17.4141    41268(203)         41976.8906        41015.5859
  1743    17.4241    40856(202)         42082.1445        41013.8945
  1744    17.4341    41180(203)         42098.4492        41012.2031
  1745    17.4441    40924(202)         42123.9531        41010.5156
  1746    17.4541    40924(202)         42160.6797        41008.8242
  1747    17.4641    40776(202)         42211.6680        41007.1328
  1748    17.4741    41180(203)         42251.9648        40975.8984
  1749    17.4841    41120(203)         42318.3789        40944.6641
  1750    17.4941    41436(204)         42423.9297        40913.4297
  1751    17.5041    41500(204)         42599.5977        40882.1953
  1752    17.5141    42340(206)         42940.6445        40850.9609
  1753    17.5241    42912(207)         43730.3359        40819.7266
  1754    17.5341    45644(214)         45601.3867        40788.4922
  1755    17.5441    49644(223)         49402.8984        40757.2617
  1756    17.5541    57440(240)         55331.7656        40726.0273
  1757    17.5641    65572(256)         61509.3594        40694.7930
  1758    17.5741    69960(264)         63402.0313        40663.5586
  1759    17.5841    64104(253)         59011.0938        40632.3242
  1760    17.5941    55056(235)         52506.2031        40601.0898
  1761    17.6041    47828(219)         47444.7031        40569.8555
  1762    17.6141    44352(211)         44593.8750        40538.6211
  1763    17.6241    42736(207)         43313.7695        40507.3945
  1764    17.6341    42304(206)         42793.2031        40476.1602
  1765    17.6441    41780(204)         42567.8008        40444.9258
  1766    17.6541    41612(204)         42459.5391        40413.6914
  1767    17.6641    41552(204)         42412.9258        40382.4570
  1768    17.6741    41628(204)         42419.2344        40351.2227
  1769    17.6841    41452(204)         42452.8906        40319.9883
  1770    17.6941    41468(204)         42520.6289        40288.7539
  1771    17.7041    41460(204)         42621.9648        40257.5234
  1772    17.7141    42268(206)         42624.1719        40226.2891
  1773    17.7241    42036(205)         42814.6094        40195.0547
  1774    17.7341    42684(207)         43060.8516        40163.8203
  1775    17.7441    42612(206)         43379.7148        40132.5859
  1776    17.7541    43132(208)         43798.8047        40101.3516
  1777    17.7641    43560(209)         44373.5820        40070.1172
  1778    17.7741    45404(213)         45255.3906        40038.8828
  1779    17.7841    47132(217)         46904.1445        40007.6484
  1780    17.7941    50916(226)         50478.7813        39976.4219
  1781    17.8041    58112(241)         57936.7500        39945.1875
  1782    17.8141    70384(265)         70718.4063        39913.9531
  1783    17.8241    85404(292)         86742.9531        39882.7188
  1784    17.8341    98672(314)         97460.9688        39851.4844
  1785    17.8441    96524(311)         93406.0313        39820.2500
  1786    17.8541    84340(290)         80014.4688        39789.0156
  1787    17.8641    71708(268)         67996.5625        39757.7813
  1788    17.8741    67076(259)         61920.4258        39726.5508
  1789    17.8841    69680(264)         62302.6641        39695.3164
  1790    17.8941    81704(286)         70460.0078        39664.0820
  1791    17.9041    105732(325)         93116.6797        39632.8477
  1792    17.9141    154168(393)        142766.4840        39601.6133
  1793    17.9241    231200(481)        227401.3910        39570.3789
  1794    17.9341    330832(575)        329614.5940        39539.1445
  1795    17.9441    390228(625)        388482.5940        39507.9102
  1796    17.9541    364868(604)        346086.7190        39476.6836
  1797    17.9641    264860(515)        246240.2500        39445.4492
  1798    17.9741    164816(406)        156468.5940        39414.2148
  1799    17.9841    105460(325)        101144.8280        39382.9805
  1800    17.9941    78704(281)         75034.0156        39351.7461
  1801    18.0041    67416(260)         64950.7969        39320.5117
  1802    18.0141    65240(255)         62128.8516        39289.2773
  1803    18.0241    68268(261)         64117.9336        39258.0430
  1804    18.0341    79100(281)         73755.7813        39226.8086
  1805    18.0441    100372(317)         98400.9375        39195.5781
  1806    18.0541    140492(375)        145327.4690        39164.3438
  1807    18.0641    194752(441)        209924.0000        39133.1094
  1808    18.0741    253584(504)        261739.1560        39101.8750
  1809    18.0841    263420(513)        254425.2810        39070.6406
  1810    18.0941    207700(456)        195139.0780        39039.4063
  1811    18.1041    132536(364)        131265.5310        39008.1719
  1812    18.1141    85136(292)         87380.5156        38976.9375
  1813    18.1241    61596(248)         64506.5859        38945.7109
  1814    18.1341    52004(228)         54403.4648        38914.4766
  1815    18.1441    47264(217)         49897.8711        38883.2422
  1816    18.1541    45176(213)         47472.7188        38852.0078
  1817    18.1641    43452(208)         45883.7109        38820.7734
  1818    18.1741    42672(207)         44731.3242        38789.5391
  1819    18.1841    41664(204)         43858.3984        38758.3047
  1820    18.1941    41124(203)         43181.2813        38727.0703
  1821    18.2041    40624(202)         42648.1211        38695.8398
  1822    18.2141    40300(201)         42225.0234        38664.6055
  1823    18.2241    40060(200)         41890.3359        38633.3711
  1824    18.2341    40136(200)         41621.5273        38602.1367
  1825    18.2441    39632(199)         41431.9961        38570.9023
  1826    18.2541    39680(199)         41295.1797        38519.6289
  1827    18.2641    39664(199)         41254.3047        38468.3555
  1828    18.2741    40184(200)         41397.0117        38417.0820
  1829    18.2841    40832(202)         41993.0703        38365.8047
  1830    18.2941    42788(207)         43644.6211        38314.5430
  1831    18.3041    46312(215)         47159.5547        38263.2695
  1832    18.3141    53640(232)         52730.4922        38211.9961
  1833    18.3241    61880(249)         58609.6563        38160.7188
  1834    18.3341    67024(259)         60519.8594        38109.4453
  1835    18.3441    61580(248)         56351.1797        38058.1719
  1836    18.3541    52068(228)         49961.6133        38006.8984
  1837    18.3641    44416(211)         44829.0117        37955.6250
  1838    18.3741    41004(202)         41826.7617        37904.3594
  1839    18.3841    39316(198)         40390.9297        37853.0859
  1840    18.3941    38752(197)         39733.6445        37801.8125
  1841    18.4041    38148(195)         39381.5703        37750.5391
  1842    18.4141    37956(195)         39146.3594        37699.2656
  1843    18.4241    37572(194)         38967.2344        37647.9883
  1844    18.4341    37576(194)         38823.3281        37596.7148
  1845    18.4441    37708(194)         38705.1328        37545.4414
  1846    18.4541    37888(195)         38607.4453        37494.1797
  1847    18.4641    37388(193)         38527.3750        37442.9023
  1848    18.4741    37588(194)         38463.7930        37391.6289
  1849    18.4841    37052(192)         38416.9570        37340.3555
  1850    18.4941    37516(194)         38388.5977        37289.0820
  1851    18.5041    37420(193)         38361.5586        37237.8086
  1852    18.5141    37852(195)         38383.8984        37186.5352
  1853    18.5241    37776(194)         38444.4766        37135.2617
  1854    18.5341    38056(195)         38563.0742        37083.9844
  1855    18.5441    38272(196)         38790.4688        37032.7227
  1856    18.5541    39504(199)         39285.2109        36981.4492
  1857    18.5641    40984(202)         40496.0938        36930.1719
  1858    18.5741    44580(211)         43347.0625        36878.8984
  1859    18.5841    50356(224)         48926.0820        36827.6250
  1860    18.5941    59108(243)         57186.9688        36776.3516
  1861    18.6041    65828(257)         65106.1563        36725.0781
  1862    18.6141    68308(261)         66382.8828        36673.8047
  1863    18.6241    63800(253)         59804.0469        36622.5391
  1864    18.6341    56472(238)         51117.6836        36571.2656
  1865    18.6441    48408(220)         44594.0781        36519.9922
  1866    18.6541    43372(208)         41089.1016        36468.7188
  1867    18.6641    40852(202)         39859.8594        36417.4453
  1868    18.6741    40680(202)         40219.7500        36366.1680
  1869    18.6841    41620(204)         42063.4805        36314.8945
  1870    18.6941    44532(211)         45297.4063        36263.6211
  1871    18.7041    47572(218)         48846.9102        36212.3555
  1872    18.7141    49748(223)         50244.4961        36161.0820
  1873    18.7241    47912(219)         48132.3438        36109.8086
  1874    18.7341    44092(210)         44248.7969        36058.5352
  1875    18.7441    40548(201)         40689.4180        36007.2617
  1876    18.7541    38548(196)         38487.0508        35955.9883
  1877    18.7641    37188(193)         37350.0078        35904.7148
  1878    18.7741    36672(191)         36806.6367        35853.4375
  1879    18.7841    36168(190)         36518.1563        35802.1641
  1880    18.7941    36148(190)         36328.5898        35750.9023
  1881    18.8041    35832(189)         36182.2344        35699.6289
  1882    18.8141    35944(190)         36060.0156        35648.3516
  1883    18.8241    35548(189)         35953.7500        35597.0781
  1884    18.8341    35728(189)         35858.8125        35545.8047
  1885    18.8441    35388(188)         35772.2188        35494.5313
  1886    18.8541    35404(188)         35691.9297        35443.2578
  1887    18.8641    35300(188)         35616.5039        35391.9844
  1888    18.8741    35624(189)         35544.9180        35340.7188
  1889    18.8841    35344(188)         35476.3828        35289.4453
  1890    18.8941    35496(188)         35410.3398        35238.1719
  1891    18.9041    35016(187)         35346.3516        35186.8984
  1892    18.9141    35164(188)         35284.0742        35135.6211
  1893    18.9241    35176(188)         35223.2617        35084.3477
  1894    18.9341    35020(187)         35163.7031        35033.0742
  1895    18.9441    34640(186)         35105.2422        34981.8008
  1896    18.9541    35044(187)         35047.7656        34930.5352
  1897    18.9641    34556(186)         34991.1602        34879.2617
  1898    18.9741    34976(187)         34935.3711        34827.9883
  1899    18.9841    34696(186)         34882.5938        34776.7148
  1900    18.9941    34924(187)         34828.4102        34725.4414
  1901    19.0041    34600(186)         34765.9883        34674.1680
  1902    19.0141    34804(187)         34736.0898        34622.8945
  1903    19.0241    34472(186)         34685.3008        34571.6172
  1904    19.0341    34624(186)         34635.5547        34520.3438
  1905    19.0441    34672(186)         34587.0820        34469.0820
  1906    19.0541    34604(186)         34540.1719        34417.8047
  1907    19.0641    34628(186)         34495.2734        34366.5313
  1908    19.0741    34676(186)         34452.9141        34315.2578
  1909    19.0841    34440(186)         34413.8359        34263.9844
  1910    19.0941    34764(186)         34379.6445        34212.7109
  1911    19.1041    34680(186)         34354.6797        34161.4375
  1912    19.1141    34856(187)         34351.6680        34110.1641
  1913    19.1241    34628(186)         34407.7148        34058.8984
  1914    19.1341    34764(186)         34606.8906        34007.6250
  1915    19.1441    35000(187)         35068.6328        33956.3516
  1916    19.1541    35528(188)         35840.6523        33905.0781
  1917    19.1641    35776(189)         36711.8633        33853.8008
  1918    19.1741    36024(190)         37090.7500        33802.5273
  1919    19.1841    35632(189)         36550.4219        33751.2539
  1920    19.1941    35256(188)         35569.1289        33699.9805
  1921    19.2041    34512(186)         34715.5352        33648.7148
  1922    19.2141    34444(186)         34174.8789        33597.4414
  1923    19.2241    34020(184)         33888.5078        33546.1680
  1924    19.2341    34052(185)         33791.8594        33549.4883
  1925    19.2441    34224(185)         33750.1094        33552.8047
  1926    19.2541    34180(185)         33728.8125        33556.1250
  1927    19.2641    33692(184)         33716.4688        33559.4414
  1928    19.2741    34068(185)         33709.2461        33562.7617
  1929    19.2841    33876(184)         33692.8906        33566.0781
  1930    19.2941    33888(184)         33692.0000        33569.3984
  1931    19.3041    33760(184)         33693.0078        33572.7148
  1932    19.3141    33948(184)         33695.5352        33576.0352
  1933    19.3241    33684(184)         33734.6172        33579.3555
  1934    19.3341    33680(184)         33775.3047        33582.6719
  1935    19.3441    33544(183)         33783.3125        33585.9922
  1936    19.3541    34108(185)         33792.3398        33589.3086
  1937    19.3641    33824(184)         33803.1172        33592.6289
  1938    19.3741    33884(184)         33814.2031        33595.9453
  1939    19.3841    33524(183)         33822.1016        33599.2656
  1940    19.3941    33680(184)         33798.9258        33567.6016
  1941    19.4041    33532(183)         33778.6289        33535.9336
  1942    19.4141    33892(184)         33759.6836        33504.2695
  1943    19.4241    33536(183)         33742.2461        33472.6016
  1944    19.4341    33736(184)         33726.5078        33440.9375
  1945    19.4441    33648(183)         33712.7109        33409.2695
  1946    19.4541    33852(184)         33704.5430        33377.6094
  1947    19.4641    33612(183)         33695.7070        33345.9453
  1948    19.4741    33640(183)         33689.9375        33314.2773
  1949    19.4841    33616(183)         33687.8281        33282.6133
  1950    19.4941    33828(184)         33690.0977        33250.9453
  1951    19.5041    33668(183)         33697.6836        33219.2813
  1952    19.5141    33840(184)         33711.7969        33187.6133
  1953    19.5241    33856(184)         33734.0273        33155.9492
  1954    19.5341    34128(185)         33766.4883        33124.2813
  1955    19.5441    34196(185)         33812.0547        33092.6211
  1956    19.5541    34384(185)         33874.7344        33060.9570
  1957    19.5641    34168(185)         33960.1797        33029.2891
  1958    19.5741    34416(186)         34076.7734        32997.6250
  1959    19.5841    34560(186)         34238.0469        32965.9570
  1960    19.5941    35052(187)         34470.1719        32934.2930
  1961    19.6041    35324(188)         34834.2734        32902.6250
  1962    19.6141    36264(190)         35477.8906        32870.9609
  1963    19.6241    37152(193)         36717.7188        32839.3008
  1964    19.6341    39928(200)         39144.3047        32807.6328
  1965    19.6441    43696(209)         43725.5078        32775.9688
  1966    19.6541    51112(226)         51618.0156        32744.3027
  1967    19.6641    61152(247)         63235.9766        32712.6367
  1968    19.6741    75148(274)         77054.3203        32680.9707
  1969    19.6841    84628(291)         86649.9219        32649.3047
  1970    19.6941    84148(290)         82804.9688        32617.6387
  1971    19.7041    72752(270)         68436.6875        32585.9785
  1972    19.7141    58976(243)         53750.3672        32554.3125
  1973    19.7241    47952(219)         43751.3281        32522.6465
  1974    19.7341    41644(204)         38516.6445        32490.9805
  1975    19.7441    37764(194)         36193.5625        32459.3145
  1976    19.7541    36396(191)         35169.5625        32427.6484
  1977    19.7641    35288(188)         34638.3047        32395.9824
  1978    19.7741    34836(187)         34307.3594        32364.3164
  1979    19.7841    34380(185)         34082.2344        32332.6504
  1980    19.7941    34416(186)         33927.0391        32300.9902
  1981    19.8041    33968(184)         33823.6953        32269.3242
  1982    19.8141    33764(184)         33761.8828        32237.6582
  1983    19.8241    33780(184)         33735.8281        32205.9922
  1984    19.8341    34164(185)         33742.9414        32174.3262
  1985    19.8441    33872(184)         33783.2148        32142.6602
  1986    19.8541    34180(185)         33857.6836        32110.9941
  1987    19.8641    34020(184)         33973.9883        32079.3281
  1988    19.8741    34440(186)         34138.7695        32047.6699
  1989    19.8841    34656(186)         34364.3164        32016.0039
  1990    19.8941    35052(187)         34668.8711        31984.3379
  1991    19.9041    35240(188)         35079.8828        31952.6719
  1992    19.9141    35792(189)         35640.1406        31921.0059
  1993    19.9241    36324(191)         36424.1563        31889.3398
  1994    19.9341    38152(195)         37597.7813        31857.6738
  1995    19.9441    40712(202)         39633.2461        31826.0078
  1996    19.9541    45688(214)         43891.9063        31794.3477
  1997    19.9641    54456(233)         53558.3359        31762.6816
  1998    19.9741    72076(268)         73732.7969        31731.0156
  1999    19.9841    102656(320)        108272.1800        31699.3496
  2000    19.9941    150036(387)        152502.2970        31667.6836
  2001    20.0041    191192(437)        186363.9060        31636.0176
  2002    20.0141    194996(442)        185112.1250        31604.3516
  2003    20.0241    154860(394)        149720.5160        31572.6855
  2004    20.0341    104808(324)        106010.3590        31541.0195
  2005    20.0441    70188(265)         72843.6094        31509.3594
  2006    20.0541    51844(228)         53551.3125        31477.6934
  2007    20.0641    43200(208)         44096.8672        31446.0273
  2008    20.0741    39144(198)         39765.1367        31414.3613
  2009    20.0841    36832(192)         37748.3867        31382.6953
  2010    20.0941    35744(189)         36976.6641        31351.0293
  2011    20.1041    34804(187)         37253.3906        31319.3633
  2012    20.1141    34984(187)         38543.6797        31287.6973
  2013    20.1241    35024(187)         40351.6172        31256.0371
  2014    20.1341    35432(188)         41327.1211        31224.3711
  2015    20.1441    34880(187)         40161.7422        31192.7051
  2016    20.1541    34176(185)         37674.0430        31161.0391
  2017    20.1641    33396(183)         35344.0078        31129.3750
  2018    20.1741    32912(181)         33780.7930        31097.7090
  2019    20.1841    32508(180)         32920.4336        31066.0430
  2020    20.1941    32436(180)         32472.2793        31034.3770
  2021    20.2041    32032(179)         32209.1055        31002.7168
  2022    20.2141    32088(179)         32022.1328        30971.0508
  2023    20.2241    31724(178)         31871.7734        30939.3848
  2024    20.2341    31868(179)         31743.9707        30907.7188
  2025    20.2441    31628(178)         31632.3301        30876.0527
  2026    20.2541    31592(178)         31533.0137        30844.3867
  2027    20.2641    31484(177)         31443.3750        30812.7207
  2028    20.2741    31528(178)         31361.5000        30781.0547
  2029    20.2841    31244(177)         31285.9609        30749.3887
  2030    20.2941    31436(177)         31215.6777        30717.7285
  2031    20.3041    31356(177)         31149.7773        30686.0625
  2032    20.3141    31316(177)         31087.5977        30654.3965
  2033    20.3241    31292(177)         31028.5977        30622.7305
  2034    20.3341    31212(177)         30972.3398        30591.0645
  2035    20.3441    30852(176)         30916.3008        30559.3984
  2036    20.3541    30956(176)         30864.5625        30527.7324
  2037    20.3641    30728(175)         30814.6484        30496.0664
  2038    20.3741    30744(175)         30744.7891        30464.4063
  2039    20.3841    30588(175)         30698.5352        30432.7402
  2040    20.3941    30904(176)         30653.5371        30401.0742
  2041    20.4041    30528(175)         30609.6641        30369.4082
  2042    20.4141    30680(175)         30566.8066        30337.7422
  2043    20.4241    30540(175)         30524.8652        30306.0762
  2044    20.4341    30552(175)         30483.7617        30274.4102
  2045    20.4441    30592(175)         30443.4199        30242.7441
  2046    20.4541    30504(175)         30403.7910        30211.0840
  2047    20.4641    30308(174)         30366.9043        30179.4199
  2048    20.4741    30624(175)         30328.5859        30147.7539
  2049    20.4841    30456(175)         30290.8398        30116.0879
  2050    20.4941    30684(175)         30253.6328        30084.4219
  2051    20.5041    30228(174)         30216.9414        30052.7559
  2052    20.5141    30420(174)         30180.7480        30021.0898
  2053    20.5241    29972(173)         30145.0371        29989.4238
  2054    20.5341    30144(174)         30109.8066        29957.7578
  2055    20.5441    30132(174)         30075.0605        29926.0977
  2056    20.5541    30500(175)         30040.7949        29894.4316
  2057    20.5641    30220(174)         30007.0547        29862.7656
  2058    20.5741    30332(174)         29973.8262        29831.0996
  2059    20.5841    30108(174)         29941.1641        29799.4336
  2060    20.5941    30248(174)         29909.1270        29767.7676
  2061    20.6041    30064(173)         29877.7871        29736.1016
  2062    20.6141    30360(174)         29847.2422        29704.4355
  2063    20.6241    29936(173)         29817.6270        29672.7754
  2064    20.6341    30112(174)         29789.1094        29641.1094
  2065    20.6441    29796(173)         29761.9316        29609.4434
  2066    20.6541    30048(173)         29736.4141        29577.7773
  2067    20.6641    29716(172)         29714.5430        29546.1113
  2068    20.6741    29952(173)         29693.9160        29514.4453
  2069    20.6841    29800(173)         29673.4219        29482.7793
  2070    20.6941    29852(173)         29630.7246        29451.1133
  2071    20.7041    29772(173)         29593.0137        29419.4531
  2072    20.7141    29816(173)         29600.5234        29387.7871
  2073    20.7241    29956(173)         29626.6777        29356.1211
  2074    20.7341    30164(174)         29694.6426        29324.4551
  2075    20.7441    29912(173)         29876.4609        29292.7891
  2076    20.7541    30196(174)         30344.8906        29261.1230
  2077    20.7641    30056(173)         31338.5918        29229.4570
  2078    20.7741    31000(176)         33025.0586        29197.7910
  2079    20.7841    31804(178)         35099.1914        29166.1250
  2080    20.7941    32552(180)         36470.2070        29134.4668
  2081    20.8041    32356(180)         35879.2109        29102.8008
  2082    20.8141    31644(178)         33888.9531        29071.1348
  2083    20.8241    30232(174)         31875.7520        29039.4688
  2084    20.8341    29828(173)         30499.3262        29007.8027
  2085    20.8441    29560(172)         29762.2168        28976.1367
  2086    20.8541    29488(172)         29416.8730        28944.4707
  2087    20.8641    29404(171)         29247.4961        28912.8047
  2088    20.8741    29468(172)         29144.9688        28881.1445
  2089    20.8841    28892(170)         29069.0684        28849.4785
  2090    20.8941    29244(171)         29006.6816        28817.8125
  2091    20.9041    29060(170)         28952.7969        28786.1465
  2092    20.9141    29232(171)         28904.8320        28754.4805
  2093    20.9241    29236(171)         28861.2012        28722.8145
  2094    20.9341    29016(170)         28820.8652        28691.1484
  2095    20.9441    28792(170)         28783.1230        28659.4824
  2096    20.9541    29008(170)         28760.4688        28640.7715
  2097    20.9641    28912(170)         28739.6426        28622.0586
  2098    20.9741    29180(171)         28720.4629        28603.3438
  2099    20.9841    28904(170)         28702.8613        28584.6309
  2100    20.9941    28768(170)         28686.8457        28565.9180
  2101    21.0041    28684(169)         28672.5234        28547.2031
  2102    21.0141    28868(170)         28660.1191        28528.4902
  2103    21.0241    28928(170)         28649.9902        28509.7754
  2104    21.0341    28972(170)         28642.7051        28491.0625
  2105    21.0441    28840(170)         28639.1230        28472.3516
  2106    21.0541    29116(171)         28640.6113        28453.6387
  2107    21.0641    28808(170)         28649.5762        28434.9238
  2108    21.0741    29188(171)         28671.5801        28416.2109
  2109    21.0841    29180(171)         28723.0059        28397.4961
  2110    21.0941    29708(172)         28851.8652        28378.7832
  2111    21.1041    29948(173)         29168.9355        28360.0684
  2112    21.1141    30964(176)         29842.4316        28341.3555
  2113    21.1241    32476(180)         30973.4844        28322.6445
  2114    21.1341    35032(187)         32355.7891        28303.9316
  2115    21.1441    36380(191)         33262.9180        28285.2168
  2116    21.1541    35952(190)         32881.4219        28266.5039
  2117    21.1641    34204(185)         31573.6738        28247.7891
  2118    21.1741    32084(179)         30246.8379        28229.0762
  2119    21.1841    30240(174)         29336.5859        28210.3633
  2120    21.1941    29508(172)         28852.5664        28191.6484
  2121    21.2041    29012(170)         28634.0762        28172.9375
  2122    21.2141    28780(170)         28538.9629        28154.2246
  2123    21.2241    28724(169)         28495.7227        28135.5117
  2124    21.2341    28800(170)         28478.2734        28116.7969
  2125    21.2441    28408(169)         28475.7383        28098.0840
  2126    21.2541    28644(169)         28477.7129        28079.3691
  2127    21.2641    28732(170)         28476.4609        28060.6563
  2128    21.2741    28760(170)         28479.0117        28041.9414
  2129    21.2841    28416(169)         28500.9160        28023.2285
  2130    21.2941    28816(170)         28565.8477        28004.5176
  2131    21.3041    28816(170)         28726.6250        27985.8047
  2132    21.3141    29044(170)         29090.5781        27967.0898
  2133    21.3241    29916(173)         29771.9102        27948.3770
  2134    21.3341    30660(175)         30783.9785        27929.6621
  2135    21.3441    31268(177)         31836.0313        27910.9492
  2136    21.3541    31960(179)         32278.9258        27892.2344
  2137    21.3641    31476(177)         31794.8867        27873.5215
  2138    21.3741    31144(176)         30986.2871        27854.8105
  2139    21.3841    31028(176)         30531.6992        27836.0977
  2140    21.3941    31456(177)         30910.6074        27817.3828
  2141    21.4041    32484(180)         32639.3711        27798.6699
  2142    21.4141    35828(189)         36256.2422        27779.9551
  2143    21.4241    39660(199)         41717.9180        27761.2422
  2144    21.4341    45260(213)         47503.3438        27742.5293
  2145    21.4441    48592(220)         50523.6328        27723.8145
  2146    21.4541    50344(224)         49978.6484        27705.1035
  2147    21.4641    50428(225)         49419.1719        27686.3906
  2148    21.4741    52060(228)         50802.0547        27667.6777
  2149    21.4841    52040(228)         51817.8672        27648.9629
  2150    21.4941    50064(224)         48688.6094        27630.2500
  2151    21.5041    45168(213)         42434.7109        27611.5352
  2152    21.5141    39736(199)         36463.2344        27592.8223
  2153    21.5241    34336(185)         32406.4648        27574.1074
  2154    21.5341    31304(177)         30224.7988        27555.3945
  2155    21.5441    29564(172)         29202.5977        27536.6836
  2156    21.5541    29004(170)         28713.9746        27517.9707
  2157    21.5641    28296(168)         28436.0527        27499.2559
  2158    21.5741    28312(168)         28246.0527        27480.5430
  2159    21.5841    27792(167)         28102.2207        27461.8281
  2160    21.5941    27932(167)         27988.8926        27443.1152
  2161    21.6041    27684(166)         27895.4160        27424.4004
  2162    21.6141    27488(166)         27817.0996        27405.6875
  2163    21.6241    27468(166)         27750.1484        27386.9766
  2164    21.6341    27332(165)         27691.8633        27368.2637
  2165    21.6441    27180(165)         27640.3359        27349.5488
  2166    21.6541    27292(165)         27594.1602        27330.8359
  2167    21.6641    26904(164)         27552.2793        27312.1230
  2168    21.6741    27392(166)         27513.8984        27293.4082
  2169    21.6841    27080(165)         27478.4082        27274.6953
  2170    21.6941    27108(165)         27451.0430        27255.9805
  2171    21.7041    26916(164)         27420.1836        27237.2715
  2172    21.7141    27048(164)         27391.0762        27218.5566
  2173    21.7241    26840(164)         27363.5020        27199.8438
  2174    21.7341    26968(164)         27337.2734        27181.1289
  2175    21.7441    26884(164)         27312.2598        27162.4160
  2176    21.7541    26836(164)         27288.3496        27143.7012
  2177    21.7641    26740(164)         27265.4688        27124.9883
  2178    21.7741    27016(164)         27243.5625        27106.2734
  2179    21.7841    26604(163)         27222.6094        27087.5605
  2180    21.7941    26804(164)         27202.6074        27068.8496
  2181    21.8041    26364(162)         27183.5781        27050.1367
  2182    21.8141    26944(164)         27165.5762        27031.4219
  2183    21.8241    26604(163)         27148.6895        27012.7090
  2184    21.8341    26692(163)         27133.0488        26993.9941
  2185    21.8441    26276(162)         27116.8340        26975.2813
  2186    21.8541    26668(163)         27094.6875        26946.8906
  2187    21.8641    26608(163)         27074.5781        26918.5000
  2188    21.8741    26768(164)         27056.9961        26890.1133
  2189    21.8841    26624(163)         27043.1133        26861.7227
  2190    21.8941    26656(163)         27032.9297        26833.3320
  2191    21.9041    26516(163)         27028.3398        26804.9414
  2192    21.9141    26680(163)         27031.4570        26776.5508
  2193    21.9241    26660(163)         27046.0117        26748.1602
  2194    21.9341    26704(163)         27077.9727        26719.7695
  2195    21.9441    27004(164)         27157.5918        26691.3770
  2196    21.9541    27316(165)         27311.9492        26662.9922
  2197    21.9641    27748(167)         27692.9766        26634.6016
  2198    21.9741    29012(170)         28576.1367        26606.2109
  2199    21.9841    31480(177)         30286.6250        26577.8203
  2200    21.9941    35312(188)         32854.0742        26549.4297
  2201    22.0041    38928(197)         35524.2031        26521.0391
  2202    22.0141    40592(201)         36575.3984        26492.6465
  2203    22.0241    37808(194)         34989.9688        26464.2559
  2204    22.0341    34396(185)         32172.4902        26435.8652
  2205    22.0441    31120(176)         29695.8086        26407.4805
  2206    22.0541    29012(170)         28115.8125        26379.0898
  2207    22.0641    27392(166)         27307.8223        26350.6992
  2208    22.0741    26804(164)         26936.0039        26322.3066
  2209    22.0841    26388(162)         26752.4648        26293.9160
  2210    22.0941    26312(162)         26640.7227        26265.5254
  2211    22.1041    26164(162)         26559.1074        26237.1348
  2212    22.1141    26304(162)         26493.7539        26208.7441
  2213    22.1241    26072(161)         26439.0996        26180.3594
  2214    22.1341    26172(162)         26392.1641        26151.9668
  2215    22.1441    25900(161)         26343.1875        26123.5762
  2216    22.1541    26044(161)         26307.1641        26095.1855
  2217    22.1641    25788(161)         26275.2207        26066.7949
  2218    22.1741    25936(161)         26247.0137        26038.4043
  2219    22.1841    25644(160)         26213.7461        26010.0137
  2220    22.1941    25848(161)         26193.4238        25981.6230
  2221    22.2041    25668(160)         26177.7031        25953.2363
  2222    22.2141    26052(161)         26168.0371        25924.8457
  2223    22.2241    25836(161)         26168.9785        25896.4551
  2224    22.2341    26164(162)         26190.3730        25868.0645
  2225    22.2441    25928(161)         26263.0352        25839.6738
  2226    22.2541    26248(162)         26447.0234        25811.2832
  2227    22.2641    26468(163)         26815.8047        25782.8906
  2228    22.2741    27040(164)         27383.6367        25754.5000
  2229    22.2841    27500(166)         27999.3125        25726.1094
  2230    22.2941    28384(168)         28295.1738        25697.7246
  2231    22.3041    27956(167)         28021.8379        25669.3340
  2232    22.3141    27540(166)         27506.8301        25640.9434
  2233    22.3241    26560(163)         27059.2227        25612.5527
  2234    22.3341    26504(163)         26933.7773        25584.1602
  2235    22.3441    26904(164)         27309.8281        25555.7695
  2236    22.3541    27736(167)         28495.6211        25527.3789
  2237    22.3641    29476(172)         30864.8652        25498.9883
  2238    22.3741    32656(181)         34392.1875        25470.6035
  2239    22.3841    36020(190)         37996.5234        25442.2129
  2240    22.3941    38372(196)         39328.7188        25413.8203
  2241    22.4041    36404(191)         37115.0195        25385.4297
  2242    22.4141    32340(180)         33290.7734        25357.0391
  2243    22.4241    28784(170)         29948.6895        25328.6484
  2244    22.4341    27068(165)         27826.6289        25300.2578
  2245    22.4441    26068(161)         26749.3984        25271.8672
  2246    22.4541    25792(161)         26267.1836        25243.4805
  2247    22.4641    25568(160)         26045.2500        25215.0898
  2248    22.4741    25640(160)         25925.8008        25186.6992
  2249    22.4841    25448(160)         25852.5879        25158.3086
  2250    22.4941    25512(160)         25803.6406        25125.7031
  2251    22.5041    25476(160)         25777.4863        25093.0977
  2252    22.5141    25772(161)         25773.3164        25060.4922
  2253    22.5241    25644(160)         25795.1777        25027.8867
  2254    22.5341    25940(161)         25856.3809        24995.2813
  2255    22.5441    26116(162)         25986.8926        24962.6816
  2256    22.5541    26932(164)         26234.6309        24930.0762
  2257    22.5641    27444(166)         26645.1953        24897.4707
  2258    22.5741    28712(169)         27228.5996        24864.8652
  2259    22.5841    29776(173)         27964.7246        24832.2578
  2260    22.5941    31488(177)         28987.5820        24799.6523
  2261    22.6041    33148(182)         31016.8223        24767.0469
  2262    22.6141    36796(192)         35198.0156        24734.4414
  2263    22.6241    42644(207)         42077.4883        24701.8418
  2264    22.6341    50252(224)         50347.6641        24669.2363
  2265    22.6441    53484(231)         55890.0977        24636.6309
  2266    22.6541    51392(227)         53967.5781        24604.0254
  2267    22.6641    46484(216)         46375.1719        24571.4199
  2268    22.6741    40724(202)         38612.1484        24538.8145
  2269    22.6841    35456(188)         33731.5078        24506.2090
  2270    22.6941    32592(181)         32068.8164        24473.6035
  2271    22.7041    31408(177)         32336.8984        24441.0039
  2272    22.7141    31192(177)         32601.5840        24408.3984
  2273    22.7241    30116(174)         31496.3867        24375.7930
  2274    22.7341    28700(169)         29507.5547        24343.1875
  2275    22.7441    26892(164)         27654.9453        24310.5820
  2276    22.7541    25944(161)         26393.4902        24277.9766
  2277    22.7641    25536(160)         25696.0098        24245.3691
  2278    22.7741    25408(159)         25348.9883        24212.7637
  2279    22.7841    25164(159)         25169.5449        24180.1582
  2280    22.7941    24932(158)         25070.4785        24147.5586
  2281    22.8041    24872(158)         24999.6563        24114.9531
  2282    22.8141    24868(158)         24952.2109        24082.3477
  2283    22.8241    24916(158)         24923.6855        24049.7422
  2284    22.8341    25092(158)         24918.2793        24017.1367
  2285    22.8441    24976(158)         24924.7188        23984.5313
  2286    22.8541    24920(158)         24950.3320        23951.9258
  2287    22.8641    24808(158)         24999.6504        23919.3203
  2288    22.8741    25256(159)         25084.0586        23886.7207
  2289    22.8841    25300(159)         25241.4219        23854.1152
  2290    22.8941    25676(160)         25503.2090        23821.5098
  2291    22.9041    25764(161)         25946.0723        23788.9043
  2292    22.9141    26404(162)         26597.2480        23756.2988
  2293    22.9241    26960(164)         27365.8281        23723.6934
  2294    22.9341    27620(166)         28002.3770        23691.0879
  2295    22.9441    28028(167)         28343.4668        23658.4805
  2296    22.9541    29316(171)         28739.9023        23625.8828
  2297    22.9641    31184(177)         29963.2012        23593.2754
  2298    22.9741    35128(187)         33408.2734        23560.6699
  2299    22.9841    42408(206)         41595.3945        23528.0645
  2300    22.9941    57892(241)         57600.6406        23495.4590
  2301    23.0041    82448(287)         82145.5234        23462.8535
  2302    23.0141    111772(334)        109172.6640        23430.2480
  2303    23.0241    127552(357)        123410.6950        23397.6426
  2304    23.0341    116704(342)        112326.8830        23365.0371
  2305    23.0441    89016(298)         85850.6719        23332.4375
  2306    23.0541    63152(251)         60251.2656        23299.8320
  2307    23.0641    44812(212)         42845.9102        23267.2266
  2308    23.0741    35376(188)         33531.5781        23234.6211
  2309    23.0841    30212(174)         29265.4531        23202.0156
  2310    23.0941    28220(168)         27331.8516        23169.4102
  2311    23.1041    26680(163)         26314.2813        23136.8047
  2312    23.1141    26160(162)         25662.4766        23104.1992
  2313    23.1241    25664(160)         25191.0801        23071.5996
  2314    23.1341    25256(159)         24830.4512        23038.9941
  2315    23.1441    24992(158)         24546.0469        23006.3867
  2316    23.1541    25000(158)         24316.6094        22973.7813
  2317    23.1641    24432(156)         24128.6172        22941.1758
  2318    23.1741    24620(157)         23970.9336        22908.5703
  2319    23.1841    24240(156)         23837.2949        22875.9648
  2320    23.1941    24348(156)         23722.7461        22843.3594
  2321    23.2041    23952(155)         23623.7266        22810.7598
  2322    23.2141    24028(155)         23538.4922        22778.1543
  2323    23.2241    23844(154)         23463.5996        22745.5488
  2324    23.2341    23916(155)         23398.7461        22712.9434
  2325    23.2441    23824(154)         23343.4395        22680.3379
  2326    23.2541    23920(155)         23298.0371        22647.7324
  2327    23.2641    23712(154)         23265.8672        22615.1270
  2328    23.2741    23820(154)         23253.1211        22582.5215
  2329    23.2841    23624(154)         23285.2285        22549.9160
  2330    23.2941    23652(154)         23417.9336        22517.3164
  2331    23.3041    23780(154)         23736.5605        22484.7109
  2332    23.3141    23960(155)         24301.8652        22452.1055
  2333    23.3241    23980(155)         25034.3477        22419.4980
  2334    23.3341    24476(156)         25607.8574        22386.8926
  2335    23.3441    24168(155)         25564.3691        22354.2871
  2336    23.3541    24116(155)         24928.3359        22321.6816
  2337    23.3641    23932(155)         24154.9180        22289.0762
  2338    23.3741    23928(155)         23577.6309        22256.4766
  2339    23.3841    23684(154)         23251.0938        22223.8711
  2340    23.3941    23728(154)         23113.2773        22191.2656
  2341    23.4041    23536(153)         23083.1758        22158.6602
  2342    23.4141    23840(154)         23135.4316        22148.5742
  2343    23.4241    23832(154)         23233.4141        22138.4883
  2344    23.4341    24044(155)         23384.6094        22128.4023
  2345    23.4441    24232(156)         23639.0234        22118.3164
  2346    23.4541    24468(156)         24126.9238        22108.2324
  2347    23.4641    25260(159)         25172.7969        22098.1465
  2348    23.4741    27080(165)         27348.8203        22088.0605
  2349    23.4841    29892(173)         31246.2656        22077.9746
  2350    23.4941    34276(185)         36845.0664        22067.8887
  2351    23.5041    38700(197)         42769.1641        22057.8027
  2352    23.5141    41368(203)         46245.9219        22047.7168
  2353    23.5241    41120(203)         46256.1992        22037.6309
  2354    23.5341    40292(201)         45070.6719        22027.5449
  2355    23.5441    38240(196)         43654.3516        22017.4609
  2356    23.5541    37164(193)         41115.0039        22007.3750
  2357    23.5641    36608(191)         38528.5703        21997.2891
  2358    23.5741    38692(197)         38457.8867        21987.2031
  2359    23.5841    43248(208)         41930.0625        21977.1172
  2360    23.5941    50404(225)         47260.2656        21967.0313
  2361    23.6041    54272(233)         49971.6211        21956.9453
  2362    23.6141    51844(228)         46511.1328        21946.8594
  2363    23.6241    42944(207)         39343.7813        21936.7754
  2364    23.6341    33816(184)         32526.1895        21926.6895
  2365    23.6441    28560(169)         27883.3242        21916.6035
  2366    23.6541    26068(161)         25375.7383        21906.5176
  2367    23.6641    24684(157)         24214.1309        21896.4316
  2368    23.6741    24072(155)         23692.6191        21886.3477
  2369    23.6841    23720(154)         23435.7617        21876.2617
  2370    23.6941    23580(154)         23298.0977        21866.1758
  2371    23.7041    23596(154)         23233.7324        21856.0918
  2372    23.7141    23616(154)         23231.9844        21846.0059
  2373    23.7241    23572(154)         23301.5215        21835.9199
  2374    23.7341    23872(155)         23484.2129        21825.8340
  2375    23.7441    24272(156)         23876.4336        21815.7480
  2376    23.7541    25172(159)         24877.8281        21805.6621
  2377    23.7641    26828(164)         27017.3750        21795.5762
  2378    23.7741    30360(174)         30917.7871        21785.4902
  2379    23.7841    35300(188)         36689.1094        21775.4043
  2380    23.7941    41444(204)         43125.6016        21765.3203
  2381    23.8041    44548(211)         47481.9375        21755.2344
  2382    23.8141    44256(210)         48070.9844        21745.1484
  2383    23.8241    40288(201)         45281.8203        21735.0625
  2384    23.8341    35736(189)         39776.7500        21724.9766
  2385    23.8441    31388(177)         33760.7266        21714.8906
  2386    23.8541    28432(169)         29230.7754        21704.8047
  2387    23.8641    26484(163)         26653.8789        21694.7188
  2388    23.8741    25748(160)         25525.5313        21684.6348
  2389    23.8841    25196(159)         25005.6973        21674.5488
  2390    23.8941    24976(158)         24532.4121        21664.4629
  2391    23.9041    24584(157)         24144.6133        21654.3770
  2392    23.9141    24560(157)         24052.5332        21644.2910
  2393    23.9241    24528(157)         24284.3301        21634.2051
  2394    23.9341    24720(157)         24616.3086        21624.1191
  2395    23.9441    24368(156)         24705.7109        21614.0332
  2396    23.9541    24716(157)         24569.4453        21603.9492
  2397    23.9641    24716(157)         24540.2988        21593.8633
  2398    23.9741    25168(159)         24702.3594        21583.7773
  2399    23.9841    25204(159)         24739.5059        21573.6914
  2400    23.9941    24852(158)         24296.3887        21563.6055
  2401    24.0041    23884(155)         23541.3145        21553.5195
  2402    24.0141    23196(152)         22830.4590        21543.4336
  2403    24.0241    22288(149)         22333.0332        21533.3477
  2404    24.0341    22204(149)         22047.8047        21523.2617
  2405    24.0441    21916(148)         21899.5977        21513.1777
  2406    24.0541    21908(148)         21818.3574        21503.0918
  2407    24.0641    21732(147)         21764.2031        21493.0059
  2408    24.0741    21824(148)         21723.4590        21482.9199
  2409    24.0841    21752(147)         21689.3379        21472.8340
  2410    24.0941    21892(148)         21659.5918        21462.7480
  2411    24.1041    21732(147)         21633.0527        21452.6621
  2412    24.1141    21856(148)         21608.9727        21442.5762
  2413    24.1241    21404(146)         21588.4238        21432.4922
  2414    24.1341    21604(147)         21567.8711        21422.4063
  2415    24.1441    21644(147)         21548.5859        21412.3203
  2416    24.1541    21812(148)         21530.3496        21402.2344
  2417    24.1641    21640(147)         21512.9961        21392.1484
  2418    24.1741    21624(147)         21496.3906        21382.0625
  2419    24.1841    21456(146)         21480.4297        21371.9766
  2420    24.1941    21716(147)         21465.0254        21361.8926
  2421    24.2041    21620(147)         21450.1074        21351.8086
  2422    24.2141    21620(147)         21435.6133        21341.7227
  2423    24.2241    21516(147)         21421.4980        21331.6367
  2424    24.2341    21512(147)         21400.0215        21321.5508
  2425    24.2441    21444(146)         21386.7559        21311.4648
  2426    24.2541    21332(146)         21373.7559        21301.3789
  2427    24.2641    21200(146)         21360.9961        21291.2930
  2428    24.2741    21588(147)         21342.9121        21281.2070
  2429    24.2841    21332(146)         21330.7246        21271.1211
  2430    24.2941    21480(147)         21318.7188        21261.0371
  2431    24.3041    21464(147)         21306.8809        21250.9512
  2432    24.3141    21408(146)         21295.1992        21240.8652
  2433    24.3241    21352(146)         21283.6680        21230.7793
  2434    24.3341    21408(146)         21261.9629        21220.6934
  2435    24.3441    21264(146)         21250.9863        21210.6074
  2436    24.3541    21252(146)         21240.1309        21200.5215
  2437    24.3641    21156(145)         21229.3926        21190.4355
  2438    24.3741    21272(146)         21218.7773        21180.3516
  2439    24.3841    21368(146)         21208.2793        21170.2656
  2440    24.3941    21384(146)         21197.9043        21160.1797
  2441    24.4041    21244(146)         21187.6563        21150.0938
  2442    24.4141    21348(146)         21177.5410        21140.0078
  2443    24.4241    21212(146)         21167.5703        21129.9219
  2444    24.4341    21400(146)         21157.7559        21119.8359
  2445    24.4441    21228(146)         21148.1113        21109.7500
  2446    24.4541    21352(146)         21138.6602        21099.6660
  2447    24.4641    21136(145)         21129.4258        21089.5801
  2448    24.4741    21192(146)         21123.4941        21082.3320
  2449    24.4841    21008(145)         21117.6543        21075.0859
  2450    24.4941    21160(145)         21112.1621        21067.8379
  2451    24.5041    21116(145)         21107.0918        21060.5898
  2452    24.5141    21148(145)         21102.5469        21053.3438
  2453    24.5241    21084(145)         21098.6504        21046.0957
  2454    24.5341    21108(145)         21088.8145        21038.8477
  2455    24.5441    21008(145)         21087.0078        21031.6016
  2456    24.5541    21160(145)         21081.1758        21024.3555
  2457    24.5641    21116(145)         21085.3887        21017.1074
  2458    24.5741    21108(145)         21089.9629        21009.8594
  2459    24.5841    21188(146)         21099.0176        21002.6113
  2460    24.5941    21224(146)         21116.8320        20995.3652
  2461    24.6041    21116(145)         21158.2559        20988.1172
  2462    24.6141    21304(146)         21247.6309        20980.8691
  2463    24.6241    21404(146)         21448.8613        20973.6230
  2464    24.6341    21992(148)         21838.7852        20966.3770
  2465    24.6441    22276(149)         22449.3242        20959.1289
  2466    24.6541    22920(151)         23165.9316        20951.8809
  2467    24.6641    23244(152)         23662.6797        20944.6348
  2468    24.6741    23252(152)         23558.1680        20937.3867
  2469    24.6841    22668(151)         22931.6699        20930.1387
  2470    24.6941    22112(149)         22205.7168        20922.8926
  2471    24.7041    21480(147)         21649.3887        20915.6465
  2472    24.7141    21276(146)         21318.2891        20908.3984
  2473    24.7241    20992(145)         21155.9961        20901.1504
  2474    24.7341    21112(145)         21083.7109        20893.9043
  2475    24.7441    20860(144)         21051.0859        20886.6563
  2476    24.7541    21124(145)         21035.9844        20879.4082
  2477    24.7641    20904(145)         21031.3047        20872.1602
  2478    24.7741    21024(145)         21040.1309        20864.9141
  2479    24.7841    20984(145)         21057.6660        20857.6660
  2480    24.7941    21208(146)         21099.8516        20850.4199
  2481    24.8041    21300(146)         21202.2070        20843.1719
  2482    24.8141    21636(147)         21443.8496        20835.9258
  2483    24.8241    21988(148)         21942.4141        20828.6777
  2484    24.8341    22948(151)         22777.8438        20821.4297
  2485    24.8441    23692(154)         23846.4785        20814.1836
  2486    24.8541    24504(157)         24723.8281        20806.9355
  2487    24.8641    24336(156)         24781.1270        20799.6875
  2488    24.8741    23884(155)         23959.9082        20792.4414
  2489    24.8841    22760(151)         22867.6523        20785.1953
  2490    24.8941    21884(148)         21973.3457        20777.9473
  2491    24.9041    21308(146)         21415.5625        20770.6992
  2492    24.9141    21292(146)         21129.1641        20763.4531
  2493    24.9241    20964(145)         20995.6387        20756.2051
  2494    24.9341    21040(145)         20929.6875        20748.9570
  2495    24.9441    20704(144)         20890.3750        20741.7090
  2496    24.9541    21140(145)         20862.3789        20734.4629
  2497    24.9641    20792(144)         20840.4453        20727.2168
  2498    24.9741    20948(145)         20822.4609        20719.9688
  2499    24.9841    20852(144)         20807.5313        20712.7207
  2500    24.9941    20840(144)         20794.5176        20705.4746
  2501    25.0041    21016(145)         20783.1621        20698.2266
  2502    25.0141    20832(144)         20773.1445        20690.9785
  2503    25.0241    20848(144)         20764.2480        20683.7324
  2504    25.0341    20864(144)         20756.5840        20676.4844
  2505    25.0441    20696(144)         20749.5469        20669.2383
  2506    25.0541    20976(145)         20748.1992        20666.8516
  2507    25.0641    20868(144)         20747.6680        20664.4648
  2508    25.0741    20876(144)         20747.9746        20662.0762
  2509    25.0841    20820(144)         20749.1777        20659.6895
  2510    25.0941    20992(145)         20751.3770        20657.3027
  2511    25.1041    20992(145)         20754.7188        20654.9160
  2512    25.1141    20932(145)         20759.4258        20652.5293
  2513    25.1241    20876(144)         20765.8477        20650.1426
  2514    25.1341    21072(145)         20774.6465        20647.7559
  2515    25.1441    20852(144)         20787.4023        20645.3672
  2516    25.1541    21236(146)         20808.2363        20642.9805
  2517    25.1641    21104(145)         20846.3867        20640.5938
  2518    25.1741    21472(147)         20917.1055        20638.2070
  2519    25.1841    21696(147)         21034.8027        20635.8203
  2520    25.1941    22212(149)         21195.8789        20633.4316
  2521    25.2041    22492(150)         21359.1660        20631.0449
  2522    25.2141    22956(152)         21445.1348        20628.6582
  2523    25.2241    22836(151)         21416.3086        20626.2715
  2524    25.2341    22644(150)         21347.6191        20623.8848
  2525    25.2441    22080(149)         21344.5820        20621.4980
  2526    25.2541    22184(149)         21516.2012        20619.1113
  2527    25.2641    22252(149)         22011.5527        20616.7227
  2528    25.2741    23512(153)         23012.6172        20614.3359
  2529    25.2841    24916(158)         24612.3574        20611.9492
  2530    25.2941    27148(165)         26616.2617        20609.5625
  2531    25.3041    28728(169)         28399.5332        20607.1758
  2532    25.3141    29156(171)         29278.5820        20604.7891
  2533    25.3241    27956(167)         29543.6406        20602.4004
  2534    25.3341    26664(163)         29722.4531        20600.0137
  2535    25.3441    25644(160)         29420.0938        20597.6270
  2536    25.3541    24588(157)         27960.4648        20595.2402
  2537    25.3641    23512(153)         25810.4277        20592.8535
  2538    25.3741    22832(151)         23847.9844        20590.4668
  2539    25.3841    22116(149)         22488.5547        20588.0801
  2540    25.3941    21684(147)         21728.1094        20585.6914
  2541    25.4041    21488(147)         21367.1211        20583.3047
  2542    25.4141    21476(147)         21213.7793        20580.9180
  2543    25.4241    21408(146)         21154.9727        20578.5313
  2544    25.4341    21556(147)         21146.6992        20576.1445
  2545    25.4441    21048(145)         21184.7852        20573.7559
  2546    25.4541    21588(147)         21302.3418        20571.3691
  2547    25.4641    21804(148)         21601.1309        20568.9824
  2548    25.4741    22532(150)         22293.5508        20566.5957
  2549    25.4841    23736(154)         23670.9297        20564.2090
  2550    25.4941    25668(160)         25889.9688        20561.8223
  2551    25.5041    27600(166)         28609.7109        20559.4336
  2552    25.5141    29488(172)         30688.8828        20557.0469
  2553    25.5241    28868(170)         30616.9023        20554.6602
  2554    25.5341    27216(165)         28447.8320        20552.2734
  2555    25.5441    24760(157)         25712.5156        20549.8867
  2556    25.5541    23184(152)         23509.5645        20547.5000
  2557    25.5641    22012(148)         22146.7598        20545.1133
  2558    25.5741    21568(147)         21452.3457        20542.7246
  2559    25.5841    21332(146)         21133.4180        20540.3379
  2560    25.5941    21308(146)         20981.7109        20537.9512
  2561    25.6041    21076(145)         20895.0918        20535.5645
  2562    25.6141    21120(145)         20838.9102        20533.1777
  2563    25.6241    20944(145)         20798.7012        20530.7910
  2564    25.6341    21108(145)         20769.7793        20528.4023
  2565    25.6441    21268(146)         20751.3066        20526.0156
  2566    25.6541    21536(147)         20742.0547        20523.6289
  2567    25.6641    21440(146)         20744.7988        20521.2422
  2568    25.6741    21436(146)         20764.3418        20518.8555
  2569    25.6841    21228(146)         20808.8672        20516.4688
  2570    25.6941    21092(145)         20887.5410        20514.0801
  2571    25.7041    20896(145)         21004.8398        20511.6934
  2572    25.7141    20944(145)         21142.1719        20509.3066
  2573    25.7241    20848(144)         21238.3359        20506.9199
  2574    25.7341    20904(145)         21231.0156        20504.5332
  2575    25.7441    20676(144)         21162.5918        20502.1465
  2576    25.7541    20776(144)         21132.6934        20499.7578
  2577    25.7641    20700(144)         21185.7832        20497.3711
  2578    25.7741    20800(144)         21281.0840        20494.9844
  2579    25.7841    20664(144)         21309.0664        20492.5977
  2580    25.7941    20712(144)         21200.9551        20490.2109
  2581    25.8041    20620(144)         21020.4258        20487.8242
  2582    25.8141    20868(144)         20855.0605        20485.4375
  2583    25.8241    20812(144)         20747.1406        20483.0488
  2584    25.8341    20720(144)         20685.6035        20480.6621
  2585    25.8441    20712(144)         20658.0254        20478.2754
  2586    25.8541    20736(144)         20647.8301        20475.8887
  2587    25.8641    20584(143)         20645.7363        20473.5020
  2588    25.8741    20752(144)         20648.0039        20471.1152
  2589    25.8841    20832(144)         20653.5000        20468.7266
  2590    25.8941    20752(144)         20662.0664        20466.3398
  2591    25.9041    20748(144)         20673.9316        20463.9531
  2592    25.9141    20856(144)         20689.5840        20461.5664
  2593    25.9241    20640(144)         20709.9551        20459.1797
  2594    25.9341    21120(145)         20735.7930        20456.7930
  2595    25.9441    21012(145)         20768.8262        20454.4043
  2596    25.9541    20984(145)         20811.2813        20452.0176
  2597    25.9641    20908(145)         20866.2344        20449.6309
  2598    25.9741    21056(145)         20939.1563        20447.2441
  2599    25.9841    20932(145)         21038.9824        20444.8574
  2600    25.9941    21396(146)         21187.2051        20442.4707
  2601    26.0041    21720(147)         21444.6563        20440.0820
  2602    26.0141    22584(150)         21976.8418        20437.6953
  2603    26.0241    23536(153)         23147.7813        20435.3086
  2604    26.0341    26224(162)         25523.6348        20432.9219
  2605    26.0441    29788(173)         29567.1074        20430.5352
  2606    26.0541    35600(189)         34981.1406        20428.1484
  2607    26.0641    39964(200)         40027.8750        20425.7617
  2608    26.0741    40512(201)         41616.9844        20423.3730
  2609    26.0841    36712(192)         38414.3906        20420.9863
  2610    26.0941    32040(179)         32915.3125        20418.5996
  2611    26.1041    27628(166)         27882.4043        20416.2129
  2612    26.1141    24656(157)         24465.7559        20413.8262
  2613    26.1241    23048(152)         22596.9707        20411.4395
  2614    26.1341    22248(149)         21713.1895        20409.0508
  2615    26.1441    21432(146)         21307.9648        20406.6641
  2616    26.1541    21240(146)         21099.1543        20404.2773
  2617    26.1641    20784(144)         20969.8965        20401.8906
  2618    26.1741    20828(144)         20878.9180        20399.5039
  2619    26.1841    20688(144)         20813.6270        20397.1172
  2620    26.1941    20804(144)         20761.7969        20394.7285
  2621    26.2041    20608(144)         20721.8242        20392.3418
  2622    26.2141    20604(144)         20691.0293        20389.9551
  2623    26.2241    20580(143)         20667.7617        20387.5684
  2624    26.2341    20716(144)         20558.3555        20292.3262
  2625    26.2441    20516(143)         20455.9258        20197.0840
  2626    26.2541    20700(144)         20362.6836        20101.8438
  2627    26.2641    20608(144)         20285.0801        20006.6016
  2628    26.2741    20916(145)         20233.7109        19911.3594
  2629    26.2841    20664(144)         20240.4023        19816.1172
  2630    26.2941    20776(144)         20324.2500        19720.8945
  2631    26.3041    20720(144)         20482.2539        19625.6523
  2632    26.3141    20856(144)         20651.5820        19530.4102
  2633    26.3241    20604(144)         20695.4609        19435.1699
  2634    26.3341    20728(144)         20515.1816        19339.9277
  2635    26.3441    20324(143)         20207.9551        19244.6855
  2636    26.3541    20552(143)         20047.7266        19246.8340
  2637    26.3641    20388(143)         20061.8613        19248.9805
  2638    26.3741    20380(143)         20306.0449        19251.1289
  2639    26.3841    20516(143)         20745.5801        19253.2773
  2640    26.3941    20468(143)         21221.5000        19255.4238
  2641    26.4041    20596(144)         21448.6934        19257.5723
  2642    26.4141    20504(143)         21238.4609        19259.7207
  2643    26.4241    20452(143)         20767.1953        19261.8672
  2644    26.4341    20552(143)         20306.7891        19264.0156
  2645    26.4441    20616(144)         19996.1523        19266.1641
  2646    26.4541    20660(144)         19853.8926        19268.3105
  2647    26.4641    20476(143)         19838.1875        19270.4590
  2648    26.4741    20596(144)         19896.3984        19272.6074
  2649    26.4841    20560(143)         19982.4336        19274.7539
  2650    26.4941    20792(144)         20063.5234        19276.9023
  2651    26.5041    20832(144)         20153.1523        19279.0508
  2652    26.5141    21160(145)         20337.7734        19281.1992
  2653    26.5241    21392(146)         20791.5234        19283.3457
  2654    26.5341    22228(149)         21824.4531        19285.4941
  2655    26.5441    23372(153)         23856.0898        19287.6406
  2656    26.5541    25920(161)         27160.1328        19289.7891
  2657    26.5641    28648(169)         31374.0859        19291.9375
  2658    26.5741    31716(178)         35072.6094        19294.0859
  2659    26.5841    32428(180)         36112.8750        19296.2324
  2660    26.5941    31184(177)         33629.2344        19298.3809
  2661    26.6041    28300(168)         29387.4336        19300.5293
  2662    26.6141    25208(159)         25457.4336        19302.6758
  2663    26.6241    22952(151)         22753.9648        19304.8242
  2664    26.6341    21752(147)         21267.8633        19306.9727
  2665    26.6441    21152(145)         20599.7109        19309.1191
  2666    26.6541    21004(145)         20364.1523        19311.2676
  2667    26.6641    20772(144)         20320.7559        19313.4160
  2668    26.6741    20852(144)         20328.1719        19315.5625
  2669    26.6841    20692(144)         20286.9043        19317.7109
  2670    26.6941    20584(143)         20171.5840        19319.8594
  2671    26.7041    20572(143)         20038.3535        19322.0059
  2672    26.7141    20608(144)         19931.8867        19324.1543
  2673    26.7241    20624(144)         19873.6582        19326.3027
  2674    26.7341    20628(144)         19860.8164        19328.4492
  2675    26.7441    20524(143)         19883.7852        19330.5977
  2676    26.7541    20432(143)         19937.8535        19332.7461
  2677    26.7641    20680(144)         20031.0371        19334.8945
  2678    26.7741    20824(144)         20199.6152        19337.0410
  2679    26.7841    21180(146)         20548.4063        19339.1895
  2680    26.7941    21712(147)         21314.3223        19341.3359
  2681    26.8041    22696(151)         22884.6719        19343.4844
  2682    26.8141    24396(156)         25622.8789        19345.6328
  2683    26.8241    26516(163)         29444.2285        19347.7813
  2684    26.8341    29488(172)         33321.9063        19349.9277
  2685    26.8441    30816(176)         35200.7813        19352.0762
  2686    26.8541    30108(174)         33611.3359        19354.2246
  2687    26.8641    27200(165)         29862.6055        19356.3711
  2688    26.8741    24520(157)         26078.6152        19358.5195
  2689    26.8841    22832(151)         23382.6406        19360.6680
  2690    26.8941    22204(149)         21992.0254        19362.8145
  2691    26.9041    22024(148)         21716.2578        19364.9629
  2692    26.9141    22864(151)         22344.2500        19367.1113
  2693    26.9241    23832(154)         23680.8359        19369.2578
  2694    26.9341    25292(159)         25324.0156        19371.4063
  2695    26.9441    25892(161)         26460.8242        19373.5547
  2696    26.9541    25820(161)         26206.4277        19375.7012
  2697    26.9641    24232(156)         24722.8730        19377.8496
  2698    26.9741    23108(152)         22948.6543        19379.9980
  2699    26.9841    21904(148)         21527.3047        19382.1445
  2700    26.9941    21312(146)         20638.9941        19384.2930
  2701    27.0041    20632(144)         20180.1309        19386.4414
  2702    27.0141    20720(144)         19973.0059        19388.5898
  2703    27.0241    20436(143)         19891.0645        19390.7363
  2704    27.0341    20512(143)         19884.3301        19392.8848
  2705    27.0441    20400(143)         19964.4668        19395.0313
  2706    27.0541    20764(144)         20185.4180        19397.1797
  2707    27.0641    20748(144)         20606.1133        19399.3281
  2708    27.0741    21420(146)         21218.6934        19401.4766
  2709    27.0841    21988(148)         21865.9375        19403.6230
  2710    27.0941    22440(150)         22212.7500        19405.7715
  2711    27.1041    22132(149)         21984.5020        19407.9199
  2712    27.1141    21696(147)         21361.0039        19410.0664
  2713    27.1241    20972(145)         20705.6953        19412.2148
  2714    27.1341    20536(143)         20227.8789        19414.3633
  2715    27.1441    20156(142)         19973.2051        19416.5098
  2716    27.1541    20168(142)         19893.5430        19418.6582
  2717    27.1641    20172(142)         19912.3164        19420.8066
  2718    27.1741    20128(142)         19951.9316        19422.9531
  2719    27.1841    20096(142)         19946.1543        19425.1016
  2720    27.1941    20176(142)         19877.6309        19427.2500
  2721    27.2041    20136(142)         19786.5723        19429.3965
  2722    27.2141    20348(143)         19710.6172        19431.5449
  2723    27.2241    20204(142)         19664.9785        19433.6934
  2724    27.2341    20248(142)         19650.1191        19435.8398
  2725    27.2441    20140(142)         19665.5273        19437.9883
  2726    27.2541    20332(143)         19723.6992        19440.1367
  2727    27.2641    20300(142)         19858.2305        19442.2852
  2728    27.2741    20424(143)         20113.5547        19444.4316
  2729    27.2841    20668(144)         20507.2656        19446.5801
  2730    27.2941    21108(145)         20974.6445        19448.7266
  2731    27.3041    21020(145)         21329.3516        19450.8750
  2732    27.3141    21112(145)         21338.4082        19453.0234
  2733    27.3241    20904(145)         21013.3945        19455.1719
  2734    27.3341    20628(144)         20600.3027        19457.3184
  2735    27.3441    20188(142)         20285.5098        19459.4668
  2736    27.3541    20292(142)         20118.8027        19461.6152
  2737    27.3641    20140(142)         20065.6074        19463.7617
  2738    27.3741    20364(143)         20044.4473        19465.9102
  2739    27.3841    20224(142)         20027.7500        19468.0586
  2740    27.3941    20552(143)         20042.8848        19470.2051
  2741    27.4041    20532(143)         20123.2500        19472.3535
  2742    27.4141    21060(145)         20303.2285        19474.5020
  2743    27.4241    21224(146)         20652.3223        19476.6484
  2744    27.4341    22060(149)         21322.7891        19478.7969
  2745    27.4441    22764(151)         22491.7969        19480.9453
  2746    27.4541    23964(155)         24135.7168        19483.0918
  2747    27.4641    24960(158)         25808.2539        19485.2402
  2748    27.4741    25056(158)         26601.3750        19487.3887
  2749    27.4841    24220(156)         25875.3789        19489.5352
  2750    27.4941    23196(152)         24184.2949        19491.6836
  2751    27.5041    22360(150)         22449.7676        19493.8320
  2752    27.5141    21272(146)         21165.7754        19495.9805
  2753    27.5241    20744(144)         20406.6270        19498.1270
  2754    27.5341    20248(142)         20026.6660        19500.2754
  2755    27.5441    20080(142)         19851.1484        19502.4219
  2756    27.5541    19916(141)         19765.7129        19504.5703
  2757    27.5641    19812(141)         19716.8457        19506.7188
  2758    27.5741    19908(141)         19686.0977        19508.8672
  2759    27.5841    19892(141)         19662.4883        19511.0137
  2760    27.5941    19752(141)         19644.8164        19513.1621
  2761    27.6041    19756(141)         19631.4707        19515.3105
  2762    27.6141    19720(140)         19618.8887        19517.4570
  2763    27.6241    19556(140)         19627.1758        19519.6055
  2764    27.6341    19624(140)         19624.5352        19521.7539
  2765    27.6441    19600(140)         19627.2988        19523.9004
  2766    27.6541    19752(141)         19638.2383        19526.0488
  2767    27.6641    19548(140)         19659.3105        19528.1973
  2768    27.6741    19668(140)         19688.0918        19530.3438
  2769    27.6841    19612(140)         19714.6289        19532.4922
  2770    27.6941    19796(141)         19722.5449        19534.6406
  2771    27.7041    19588(140)         19704.9082        19536.7871
  2772    27.7141    19700(140)         19674.5605        19538.9355
  2773    27.7241    19444(139)         19643.7285        19541.0840
  2774    27.7341    19688(140)         19624.2676        19543.2305
  2775    27.7441    19608(140)         19613.7813        19545.3789
  2776    27.7541    19656(140)         19609.4238        19547.5273
  2777    27.7641    19632(140)         19608.3164        19549.6758
  2778    27.7741    19692(140)         19608.7031        19551.8223
  2779    27.7841    19436(139)         19609.7969        19553.9707
  2780    27.7941    19604(140)         19611.2930        19556.1172
  2781    27.8041    19592(140)         19613.0820        19558.2656
  2782    27.8141    19656(140)         19624.5723        19560.4141
  2783    27.8241    19460(139)         19627.0469        19562.5625
  2784    27.8341    19636(140)         19629.7129        19564.7090
  2785    27.8441    19520(140)         19632.5625        19566.8574
  2786    27.8541    19480(140)         19635.5801        19569.0059
  2787    27.8641    19480(140)         19638.7637        19571.1523
  2788    27.8741    19620(140)         19641.1367        19573.3008
  2789    27.8841    19532(140)         19644.6699        19575.4492
  2790    27.8941    19688(140)         19648.3633        19577.5957
  2791    27.9041    19512(140)         19652.2266        19579.7441
  2792    27.9141    19616(140)         19656.2617        19581.8926
  2793    27.9241    19440(139)         19660.4746        19584.0391
  2794    27.9341    19580(140)         19664.8750        19586.1875
  2795    27.9441    19440(139)         19669.4727        19588.3359
  2796    27.9541    19600(140)         19674.1504        19590.4824
  2797    27.9641    19352(139)         19679.1875        19592.6309
  2798    27.9741    19560(140)         19816.7051        19727.0215
  2799    27.9841    19520(140)         19954.4824        19861.4102
  2800    27.9941    19568(140)         20092.5430        19995.8008
  2801    28.0041    19260(139)         20231.8711        20130.1914
  2802    28.0141    19512(140)         20227.9414        20121.9199
  2803    28.0241    19440(139)         20224.3887        20113.6484
  2804    28.0341    19516(140)         20221.2754        20105.3770
  2805    28.0441    19440(139)         20218.6992        20097.1074
  2806    28.0541    19544(140)         20216.8223        20088.8359
  2807    28.0641    19548(140)         20232.9141        20080.5645
  2808    28.0741    19592(140)         20233.4941        20072.2930
  2809    28.0841    19488(140)         20234.4629        20064.0215
  2810    28.0941    19744(141)         20236.7617        20055.7500
  2811    28.1041    19732(140)         20238.9434        20047.4785
  2812    28.1141    19836(141)         20240.7266        20039.2070
  2813    28.1241    19544(140)         20242.9043        20030.9355
  2814    28.1341    19780(141)         20246.4551        20022.6641
  2815    28.1441    19780(141)         20251.9805        20014.3926
  2816    28.1541    19692(140)         20259.7012        20006.1211
  2817    28.1641    19708(140)         20270.1289        19997.8496
  2818    28.1741    19844(141)         20283.7676        19989.5781
  2819    28.1841    19756(141)         20301.7188        19981.3066
  2820    28.1941    19848(141)         20325.4395        19973.0352
  2821    28.2041    19792(141)         20355.9141        19964.7656
  2822    28.2141    19988(141)         20392.9980        19956.4941
  2823    28.2241    19808(141)         20433.9766        19948.2227
  2824    28.2341    20180(142)         20475.1387        19939.9512
  2825    28.2441    20100(142)         20517.4590        19931.6797
  2826    28.2541    20344(143)         20565.5781        19923.4082
  2827    28.2641    20316(143)         20632.9023        19915.1367
  2828    28.2741    20460(143)         20726.2715        19906.8652
  2829    28.2841    20600(144)         20857.3145        19898.5938
  2830    28.2941    21008(145)         21059.0742        19890.3242
  2831    28.3041    21376(146)         21401.4043        19882.0527
  2832    28.3141    22224(149)         22004.8965        19873.7813
  2833    28.3241    23224(152)         23015.2148        19865.5098
  2834    28.3341    25392(159)         24526.4141        19857.2383
  2835    28.3441    28496(169)         26517.5176        19848.9668
  2836    28.3541    32264(180)         28907.3164        19840.6953
  2837    28.3641    36316(191)         31944.8809        19832.4238
  2838    28.3741    41440(204)         36781.8281        19824.1543
  2839    28.3841    48564(220)         44727.6641        19815.8828
  2840    28.3941    58944(243)         55289.5273        19807.6094
  2841    28.4041    65448(256)         65039.9141        19799.3379
  2842    28.4141    64196(253)         68527.8125        19791.0664
  2843    28.4241    57360(239)         62780.1719        19782.7949
  2844    28.4341    50100(224)         51393.0977        19774.5234
  2845    28.4441    42628(206)         39939.8203        19766.2520
  2846    28.4541    35344(188)         31434.2617        19757.9824
  2847    28.4641    29376(171)         26331.2656        19749.7109
  2848    28.4741    25768(161)         23736.0020        19741.4395
  2849    28.4841    23536(153)         22541.2676        19733.1680
  2850    28.4941    22520(150)         21996.0879        19724.8965
  2851    28.5041    22108(149)         21737.2930        19716.6250
  2852    28.5141    21840(148)         21633.1953        19708.3535
  2853    28.5241    22040(148)         21669.2559        19700.0820
  2854    28.5341    22392(150)         21930.5762        19691.8105
  2855    28.5441    23000(152)         22662.7188        19683.5410
  2856    28.5541    24904(158)         24339.4414        19675.2695
  2857    28.5641    27588(166)         27566.4688        19666.9980
  2858    28.5741    33096(182)         32650.3203        19658.7266
  2859    28.5841    39940(200)         38922.2031        19650.4551
  2860    28.5941    47300(217)         44192.0156        19642.1836
  2861    28.6041    49464(222)         45263.5977        19633.9121
  2862    28.6141    45536(213)         41277.5234        19625.6406
  2863    28.6241    36624(191)         34996.2227        19617.3711
  2864    28.6341    29400(171)         29210.7383        19609.0996
  2865    28.6441    24812(158)         25160.9473        19600.8281
  2866    28.6541    22532(150)         22848.1152        19592.5566
  2867    28.6641    21624(147)         21711.4844        19584.2852
  2868    28.6741    21292(146)         21190.3457        19576.0137
  2869    28.6841    20636(144)         20942.2988        19567.7422
  2870    28.6941    20624(144)         20815.0391        19559.4688
  2871    28.7041    20568(143)         20747.4023        19551.1992
  2872    28.7141    20564(143)         20726.4160        19542.9277
  2873    28.7241    20544(143)         20750.0938        19534.6563
  2874    28.7341    20740(144)         20838.5508        19526.3848
  2875    28.7441    20928(145)         21034.6914        19518.1133
  2876    28.7541    21380(146)         21404.4043        19509.8418
  2877    28.7641    21796(148)         22007.7656        19501.5703
  2878    28.7741    22776(151)         22845.4492        19493.2988
  2879    28.7841    23620(154)         23825.7402        19485.0273
  2880    28.7941    24880(158)         24840.5117        19476.7578
  2881    28.8041    25872(161)         26154.3086        19468.4863
  2882    28.8141    28656(169)         28831.4023        19460.2148
  2883    28.8241    33244(182)         34293.0156        19451.9434
  2884    28.8341    42412(206)         43254.2227        19443.6719
  2885    28.8441    54724(234)         54501.1016        19435.4004
  2886    28.8541    66528(258)         63992.2422        19427.1289
  2887    28.8641    69560(264)         65893.6016        19418.8574
  2888    28.8741    62680(250)         58630.8984        19410.5879
  2889    28.8841    49288(222)         47162.6094        19402.3164
  2890    28.8941    37248(193)         36552.2109        19394.0449
  2891    28.9041    29112(171)         29077.0000        19385.7734
  2892    28.9141    24988(158)         24770.4629        19377.5020
  2893    28.9241    22844(151)         22626.6172        19369.2305
  2894    28.9341    21808(148)         21620.2344        19360.9590
  2895    28.9441    21164(145)         21115.2969        19352.6875
  2896    28.9541    20912(145)         20819.1406        19344.4160
  2897    28.9641    20540(143)         20620.3848        19336.1445
  2898    28.9741    20308(143)         20479.0352        19327.8730
  2899    28.9841    20144(142)         20379.2148        19319.6016
  2900    28.9941    20360(143)         20315.0918        19311.3301
  2901    29.0041    20264(142)         20290.3203        19303.0586
  2902    29.0141    20356(143)         20325.0000        19294.7871
  2903    29.0241    20148(142)         20487.6641        19286.5156
  2904    29.0341    20516(143)         20806.8965        19278.2441
  2905    29.0441    20728(144)         21365.5762        19269.9746
  2906    29.0541    21060(145)         22141.4473        19261.7031
  2907    29.0641    21432(146)         22950.9648        19253.4316
  2908    29.0741    21916(148)         23436.2559        19245.1602
  2909    29.0841    22000(148)         23331.7305        19236.8887
  2910    29.0941    22316(149)         22878.4863        19228.6172
  2911    29.1041    22712(151)         22617.8984        19220.3457
  2912    29.1141    23908(155)         23127.7383        19212.0742
  2913    29.1241    25956(161)         25043.2852        19203.8047
  2914    29.1341    29464(172)         28942.3281        19195.5332
  2915    29.1441    33968(184)         34878.2188        19187.2617
  2916    29.1541    39684(199)         41717.9766        19178.9902
  2917    29.1641    44212(210)         46725.9141        19170.7188
  2918    29.1741    46120(215)         46651.5469        19162.4473
  2919    29.1841    42116(205)         41515.3438        19154.1758
  2920    29.1941    34760(186)         34573.9219        19145.9043
  2921    29.2041    28232(168)         28522.8262        19137.6328
  2922    29.2141    24020(155)         24402.9863        19129.3613
  2923    29.2241    21792(148)         22096.9297        19121.0898
  2924    29.2341    20820(144)         20959.4883        19112.8184
  2925    29.2441    20260(142)         20417.1445        19104.5469
  2926    29.2541    20076(142)         20132.7207        19096.2754
  2927    29.2641    19704(140)         19955.9492        19088.0039
  2928    29.2741    19700(140)         19830.1973        19079.7324
  2929    29.2841    19432(139)         19734.3027        19071.4609
  2930    29.2941    19360(139)         19665.9902        19063.1914
  2931    29.3041    19476(140)         19606.0527        19054.9199
  2932    29.3141    19420(139)         19557.9512        19046.6484
  2933    29.3241    19400(139)         19519.3691        19038.3770
  2934    29.3341    19316(139)         19488.7383        19030.1055
  2935    29.3441    19176(138)         19465.0449        19021.8340
  2936    29.3541    19172(138)         19447.7227        19013.5625
  2937    29.3641    19128(138)         19436.9199        19005.2910
  2938    29.3741    19304(139)         19435.4844        18998.8516
  2939    29.3841    19132(138)         19439.7715        18992.4102
  2940    29.3941    19228(139)         19452.6465        18985.9707
  2941    29.4041    19204(139)         19467.9824        18979.5293
  2942    29.4141    19340(139)         19510.8867        18973.0898
  2943    29.4241    19492(140)         19588.7539        18966.6484
  2944    29.4341    19600(140)         19740.7324        18960.2090
  2945    29.4441    19940(141)         20052.8594        18953.7676
  2946    29.4541    20568(143)         20674.4199        18947.3281
  2947    29.4641    21448(146)         21792.1250        18940.8887
  2948    29.4741    23052(152)         23520.1816        18934.4473
  2949    29.4841    25704(160)         25727.7871        18928.0059
  2950    29.4941    28564(169)         27856.2734        18921.5664
  2951    29.5041    30096(173)         29005.9063        18915.1250
  2952    29.5141    29736(172)         28698.4141        18908.6855
  2953    29.5241    27452(166)         27139.2813        18902.2441
  2954    29.5341    25136(159)         24941.4414        18895.8047
  2955    29.5441    23208(152)         22869.8750        18889.3652
  2956    29.5541    21816(148)         21342.1680        18882.9238
  2957    29.5641    20660(144)         20398.8867        18876.4824
  2958    29.5741    20128(142)         19902.4141        18870.0430
  2959    29.5841    19652(140)         19654.4277        18863.6016
  2960    29.5941    19648(140)         19534.2500        18857.1621
  2961    29.6041    19344(139)         19473.6992        18850.7207
  2962    29.6141    19464(140)         19441.2500        18844.2813
  2963    29.6241    19240(139)         19425.2676        18837.8418
  2964    29.6341    19296(139)         19421.4375        18831.4004
  2965    29.6441    19280(139)         19428.1270        18824.9609
  2966    29.6541    19384(139)         19444.8574        18818.5195
  2967    29.6641    19320(139)         19455.1133        18812.0781
  2968    29.6741    19528(140)         19493.8320        18805.6387
  2969    29.6841    19356(139)         19545.4609        18799.1973
  2970    29.6941    19560(140)         19612.5078        18792.7578
  2971    29.7041    19536(140)         19698.5918        18786.3184
  2972    29.7141    19752(141)         19808.9570        18779.8770
  2973    29.7241    19884(141)         19951.1660        18773.4375
  2974    29.7341    20348(143)         20136.8984        18766.9961
  2975    29.7441    20484(143)         20387.1934        18760.5547
  2976    29.7541    21176(146)         20750.2207        18754.1152
  2977    29.7641    21788(148)         21355.3496        18747.6738
  2978    29.7741    23508(153)         22538.8555        18741.2344
  2979    29.7841    26012(161)         25038.6211        18734.7930
  2980    29.7941    30804(176)         30081.5039        18728.3535
  2981    29.8041    38768(197)         38989.3789        18721.9141
  2982    29.8141    51896(228)         52040.3320        18715.4727
  2983    29.8241    66016(257)         67010.4688        18709.0313
  2984    29.8341    77408(278)         78265.8125        18702.5918
  2985    29.8441    76996(277)         78886.4688        18696.1504
  2986    29.8541    66136(257)         68429.1094        18689.7109
  2987    29.8641    51356(227)         53593.5391        18683.2695
  2988    29.8741    39412(199)         40354.7734        18676.8301
  2989    29.8841    31248(177)         31259.7656        18670.3906
  2990    29.8941    27120(165)         26200.5234        18663.9492
  2991    29.9041    25228(159)         23817.9063        18657.5098
  2992    29.9141    24320(156)         22701.9648        18651.0684
  2993    29.9241    23116(152)         21962.5508        18644.6270
  2994    29.9341    22180(149)         21305.9043        18638.1875
  2995    29.9441    21144(145)         20742.3926        18631.7461
  2996    29.9541    20548(143)         20315.2617        18625.3066
  2997    29.9641    20168(142)         20027.3184        18618.8672
  2998    29.9741    19944(141)         19853.5840        18612.4258
  2999    29.9841    19728(140)         19752.7637        18605.9863
  3000    29.9941    19992(141)         19725.1699        18599.5449
  3001    30.0041    19924(141)         19754.6641        18593.1035
  3002    30.0141    20276(142)         19840.3574        18586.6641
  3003    30.0241    20656(144)         19983.4395        18580.2227
  3004    30.0341    21096(145)         20196.6367        18573.7832
  3005    30.0441    21596(147)         20555.5684        18567.3438
  3006    30.0541    22684(151)         21288.2383        18560.9023
  3007    30.0641    23860(154)         22792.8203        18554.4629
  3008    30.0741    26148(162)         25501.7109        18548.0215
  3009    30.0841    28608(169)         29539.6934        18541.5820
  3010    30.0941    31612(178)         34260.0664        18535.1406
  3011    30.1041    33208(182)         37951.9336        18528.6992
  3012    30.1141    34064(185)         38419.3672        18522.2598
  3013    30.1241    32796(181)         35348.1484        18515.8203
  3014    30.1341    29872(173)         30814.6758        18509.3789
  3015    30.1441    26624(163)         26855.9063        18502.9395
  3016    30.1541    24500(157)         24474.9844        18496.4980
  3017    30.1641    23576(154)         23668.3984        18490.0586
  3018    30.1741    23824(154)         23903.6055        18483.6172
  3019    30.1841    23688(154)         24368.1699        18477.1758
  3020    30.1941    23996(155)         24325.2480        18470.7363
  3021    30.2041    23568(154)         23572.1855        18464.2969
  3022    30.2141    22728(151)         22516.3379        18457.8555
  3023    30.2241    21712(147)         21599.2285        18451.4160
  3024    30.2341    21212(146)         20983.5898        18444.9746
  3025    30.2441    20812(144)         20580.5762        18438.5352
  3026    30.2541    20432(143)         20245.7656        18432.0938
  3027    30.2641    20028(142)         19944.3516        18425.6523
  3028    30.2741    19880(141)         19709.2969        18419.2129
  3029    30.2841    19640(140)         19567.1016        18412.7715
  3030    30.2941    19620(140)         19523.5762        18406.3320
  3031    30.3041    19428(139)         19575.0879        18399.8926
  3032    30.3141    19848(141)         19736.3496        18393.4512
  3033    30.3241    20204(142)         20100.1406        18387.0117
  3034    30.3341    20940(145)         20899.5527        18380.5703
  3035    30.3441    22260(149)         22595.3125        18374.1309
  3036    30.3541    25280(159)         25799.8867        18367.6895
  3037    30.3641    29420(172)         30923.1719        18361.2480
  3038    30.3741    36060(190)         37552.2031        18354.8086
  3039    30.3841    41772(204)         43895.8281        18348.3691
  3040    30.3941    43824(209)         46839.9766        18341.9277
  3041    30.4041    40524(201)         44331.9453        18335.4883
  3042    30.4141    35092(187)         38129.8906        18329.0469
  3043    30.4241    29716(172)         31400.2988        18322.6074
  3044    30.4341    25708(160)         26077.6641        18316.1660
  3045    30.4441    22596(150)         22678.5488        18309.7246
  3046    30.4541    20992(145)         20842.1016        18303.2871
  3047    30.4641    19900(141)         19945.0273        18296.8457
  3048    30.4741    19440(139)         19509.1738        18290.4043
  3049    30.4841    19004(138)         19271.7715        18283.9648
  3050    30.4941    18904(137)         19119.8574        18277.5234
  3051    30.5041    18680(137)         19011.4043        18271.0840
  3052    30.5141    18776(137)         18931.6113        18264.6426
  3053    30.5241    18624(136)         18876.6035        18258.2031
  3054    30.5341    18820(137)         18848.9023        18251.7617
  3055    30.5441    18564(136)         18854.6133        18245.3223
  3056    30.5541    18760(137)         18893.2559        18234.9648
  3057    30.5641    18700(137)         18960.0410        18224.6055
  3058    30.5741    18944(138)         19025.9570        18214.2480
  3059    30.5841    18804(137)         19043.6758        18203.8906
  3060    30.5941    18900(137)         18984.6680        18193.5332
  3061    30.6041    18664(137)         18877.1914        18183.1738
  3062    30.6141    18604(136)         18767.7207        18172.8164
  3063    30.6241    18452(136)         18684.1777        18162.4609
  3064    30.6341    18552(136)         18634.3359        18152.1035
  3065    30.6441    18592(136)         18612.8359        18141.7441
  3066    30.6541    18508(136)         18613.8359        18131.3867
  3067    30.6641    18520(136)         18610.9844        18121.0293
  3068    30.6741    18716(137)         18657.3848        18110.6719
  3069    30.6841    18752(137)         18755.8574        18100.3125
  3070    30.6941    19128(138)         18962.3613        18089.9551
  3071    30.7041    19336(139)         19361.0078        18079.5996
  3072    30.7141    20128(142)         20034.7852        18069.2422
  3073    30.7241    21168(145)         20999.5918        18058.8828
  3074    30.7341    22724(151)         22128.1289        18048.5254
  3075    30.7441    24092(155)         23105.6836        18038.1680
  3076    30.7541    25076(158)         23584.2129        18027.8105
  3077    30.7641    24812(158)         23556.0078        18017.4512
  3078    30.7741    24660(157)         23182.6758        18007.0938
  3079    30.7841    23588(154)         22503.1172        17996.7363
  3080    30.7941    23160(152)         21659.0898        17986.3809
  3081    30.8041    22264(149)         20921.2793        17976.0215
  3082    30.8141    21896(148)         20433.1191        17965.6641
  3083    30.8241    21556(147)         20164.0098        17955.3066
  3084    30.8341    21064(145)         19979.4355        17944.9492
  3085    30.8441    20492(143)         19802.3047        17934.5898
  3086    30.8541    20412(143)         19648.0664        17924.2324
  3087    30.8641    19744(141)         19556.8301        17913.8750
  3088    30.8741    19924(141)         19560.8594        17903.5195
  3089    30.8841    19988(141)         19676.7910        17893.1602
  3090    30.8941    20532(143)         19921.9180        17882.8027
  3091    30.9041    20808(144)         20357.6348        17872.4453
  3092    30.9141    22084(149)         21180.0410        17862.0879
  3093    30.9241    23536(153)         22881.9766        17851.7285
  3094    30.9341    26816(164)         26420.3438        17841.3711
  3095    30.9441    33272(182)         33173.4453        17831.0137
  3096    30.9541    44760(212)         44217.5273        17820.6582
  3097    30.9641    59376(244)         59064.0313        17810.2988
  3098    30.9741    74628(273)         74334.6406        17799.9414
  3099    30.9841    81484(285)         83460.2188        17789.5840
  3100    30.9941    78024(279)         80571.7891        17779.2266
  3101    31.0041    66644(258)         67783.9844        17768.8672
  3102    31.0141    52940(230)         52292.2578        17758.5098
  3103    31.0241    39724(199)         39402.7891        17748.1523
  3104    31.0341    31280(177)         31133.4141        17737.7949
  3105    31.0441    27028(164)         27072.7500        17727.4375
  3106    31.0541    25324(159)         25686.7480        17717.0801
  3107    31.0641    24624(157)         25321.2402        17706.7227
  3108    31.0741    24060(155)         24730.4141        17696.3652
  3109    31.0841    23160(152)         23545.7871        17686.0059
  3110    31.0941    21984(148)         22126.8105        17675.6484
  3111    31.1041    21064(145)         20876.3828        17665.2910
  3112    31.1141    20392(143)         19980.7969        17654.9336
  3113    31.1241    19896(141)         19437.8867        17644.5781
  3114    31.1341    19708(140)         19153.0059        17634.2188
  3115    31.1441    19444(139)         19029.5293        17623.8613
  3116    31.1541    19704(140)         19011.7266        17613.5039
  3117    31.1641    19788(141)         19093.7891        17603.1445
  3118    31.1741    20244(142)         19330.2773        17592.7871
  3119    31.1841    20628(144)         19868.4883        17582.4297
  3120    31.1941    21652(147)         20980.6465        17572.0723
  3121    31.2041    23176(152)         23023.0352        17561.7168
  3122    31.2141    26540(163)         26235.2109        17551.3574
  3123    31.2241    30568(175)         30385.0273        17541.0000
  3124    31.2341    34588(186)         34517.3164        17530.6426
  3125    31.2441    35848(189)         36988.1250        17520.2832
  3126    31.2541    35064(187)         36805.0703        17509.9258
  3127    31.2641    32788(181)         34850.6484        17499.5684
  3128    31.2741    31032(176)         32608.8086        17489.2109
  3129    31.2841    29364(171)         30675.2578        17478.8516
  3130    31.2941    27532(166)         28643.4063        17468.4961
  3131    31.3041    25624(160)         26175.3594        17458.1387
  3132    31.3141    23536(153)         23645.9727        17447.7813
  3133    31.3241    21500(147)         21523.6152        17437.4219
  3134    31.3341    20268(142)         20016.7656        17427.0645
  3135    31.3441    19504(140)         19092.2637        17416.7070
  3136    31.3541    19144(138)         18584.7422        17406.3496
  3137    31.3641    18772(137)         18318.2695        17395.9902
  3138    31.3741    18744(137)         18182.8809        17385.6348
  3139    31.3841    18292(135)         18095.2168        17375.2773
  3140    31.3941    18396(136)         18066.8809        17390.9492
  3141    31.4041    18376(136)         18066.5137        17406.6211
  3142    31.4141    18644(137)         18102.4336        17422.2930
  3143    31.4241    18632(136)         18200.3027        17437.9648
  3144    31.4341    18980(138)         18407.8828        17453.6367
  3145    31.4441    19252(139)         18793.9863        17469.3086
  3146    31.4541    19996(141)         19426.9160        17484.9766
  3147    31.4641    20748(144)         20325.8652        17500.6484
  3148    31.4741    21424(146)         21396.1602        17516.3203
  3149    31.4841    21648(147)         22419.6309        17531.9922
  3150    31.4941    21900(148)         23101.8945        17547.6641
  3151    31.5041    21580(147)         23201.8828        17563.3359
  3152    31.5141    21464(147)         22746.7813        17579.0078
  3153    31.5241    20972(145)         21894.8359        17594.6797
  3154    31.5341    20496(143)         20890.8633        17610.3516
  3155    31.5441    19500(140)         20046.2832        17626.0195
  3156    31.5541    19184(139)         19565.8496        17641.6914
  3157    31.5641    18904(137)         19525.3945        17657.3633
  3158    31.5741    19436(139)         19896.4336        17673.0352
  3159    31.5841    19892(141)         20543.7598        17688.7070
  3160    31.5941    20448(143)         21226.4375        17704.3789
  3161    31.6041    20636(144)         21652.4375        17720.0508
  3162    31.6141    20684(144)         21748.2988        17735.7227
  3163    31.6241    20736(144)         21878.4961        17751.3926
  3164    31.6341    21416(146)         22460.1230        17767.0645
  3165    31.6441    22480(150)         23599.1465        17782.7363
  3166    31.6541    24244(156)         24944.8047        17798.4082
  3167    31.6641    24808(158)         25727.0996        17814.0781
  3168    31.6741    24620(157)         25270.4219        17829.7500
  3169    31.6841    23048(152)         23794.3711        17845.4219
  3170    31.6941    21516(147)         22011.6094        17861.0938
  3171    31.7041    19860(141)         20498.0762        17876.7637
  3172    31.7141    19200(139)         19466.0703        17892.4355
  3173    31.7241    18404(136)         18875.8418        17908.1074
  3174    31.7341    18476(136)         18580.7266        17923.7793
  3175    31.7441    18032(134)         18443.7656        17939.4512
  3176    31.7541    18144(135)         18379.6777        17955.1230
  3177    31.7641    17968(134)         18347.9395        17970.7949
  3178    31.7741    17924(134)         18331.6016        17986.4668
  3179    31.7841    17832(134)         18324.8457        18002.1387
  3180    31.7941    17804(133)         18325.4863        18017.8066
  3181    31.8041    17916(134)         18311.8984        18011.8887
  3182    31.8141    18064(134)         18308.5293        18005.9727
  3183    31.8241    17976(134)         18300.5742        18000.0547
  3184    31.8341    18188(135)         18350.4746        17994.1367
  3185    31.8441    18288(135)         18456.7617        17988.2207
  3186    31.8541    18648(137)         18636.0000        17982.3027
  3187    31.8641    18676(137)         18878.5156        17976.3848
  3188    31.8741    19344(139)         19128.2734        17970.4688
  3189    31.8841    19612(140)         19279.0156        17964.5527
  3190    31.8941    19756(141)         19233.6406        17958.6348
  3191    31.9041    19396(139)         19020.1758        17952.7168
  3192    31.9141    18832(137)         18751.4414        17946.8008
  3193    31.9241    18380(136)         18519.5547        17940.8828
  3194    31.9341    18104(135)         18358.9395        17934.9648
  3195    31.9441    18008(134)         18266.2832        17929.0488
  3196    31.9541    18048(134)         18220.6699        17923.1328
  3197    31.9641    17920(134)         18201.3125        17917.2148
  3198    31.9741    18096(135)         18195.1113        17911.2969
  3199    31.9841    17844(134)         18195.8027        17905.3809
  3200    31.9941    18052(134)         18201.0645        17899.4629
  3201    32.0041    17836(134)         18210.3418        17893.5469
  3202    32.0141    18196(135)         18223.8320        17887.6289
  3203    32.0241    18040(134)         18242.1719        17881.7109
  3204    32.0341    18088(134)         18266.6738        17875.7930
  3205    32.0441    18044(134)         18300.0703        17869.8770
  3206    32.0541    18300(135)         18349.2324        17863.9590
  3207    32.0641    18164(135)         18430.0781        17858.0430
  3208    32.0741    18560(136)         18575.3535        17852.1250
  3209    32.0841    18888(137)         18837.1465        17846.2070
  3210    32.0941    19416(139)         19267.0000        17840.2910
  3211    32.1041    19852(141)         19894.1719        17834.3730
  3212    32.1141    20892(145)         20644.3730        17828.4570
  3213    32.1241    21424(146)         21321.5488        17822.5391
  3214    32.1341    22084(149)         21651.7734        17816.6230
  3215    32.1441    22000(148)         21563.6348        17810.7031
  3216    32.1541    22492(150)         21352.5684        17804.7871
  3217    32.1641    23172(152)         21484.7012        17798.8711
  3218    32.1741    25252(159)         22484.8125        17792.9531
  3219    32.1841    28372(168)         24937.9844        17787.0371
  3220    32.1941    33508(183)         29336.4551        17781.1191
  3221    32.2041    38516(196)         35650.0039        17775.2031
  3222    32.2141    43308(208)         42785.9766        17769.2832
  3223    32.2241    46184(215)         48242.5625        17763.3672
  3224    32.2341    48656(221)         48976.5703        17757.4492
  3225    32.2441    47208(217)         44445.0859        17751.5332
  3226    32.2541    41560(204)         37351.5859        17745.6172
  3227    32.2641    33660(183)         30525.5234        17739.6992
  3228    32.2741    27108(165)         25446.7988        17733.7832
  3229    32.2841    23072(152)         22359.7266        17727.8633
  3230    32.2941    21288(146)         20818.1367        17721.9473
  3231    32.3041    20492(143)         20211.4258        17716.0293
  3232    32.3141    20424(143)         20056.5957        17710.1133
  3233    32.3241    20312(143)         20037.1191        17704.1953
  3234    32.3341    20492(143)         19972.7012        17698.2793
  3235    32.3441    19924(141)         19798.5273        17692.3613
  3236    32.3541    19820(141)         19559.0781        17686.4434
  3237    32.3641    19552(140)         19341.8535        17680.5273
  3238    32.3741    19584(140)         19217.0410        17674.6094
  3239    32.3841    19500(140)         19237.6738        17668.6934
  3240    32.3941    19928(141)         19474.5098        17662.7754
  3241    32.4041    20508(143)         20064.9453        17656.8574
  3242    32.4141    22036(148)         21221.1719        17650.9414
  3243    32.4241    24120(155)         23142.7461        17645.0234
  3244    32.4341    27164(165)         25818.9219        17639.1074
  3245    32.4441    29504(172)         28822.4531        17633.1895
  3246    32.4541    31004(176)         31220.2051        17627.2734
  3247    32.4641    30864(176)         32004.8184        17621.3535
  3248    32.4741    30824(176)         31343.4531        17615.4375
  3249    32.4841    31324(177)         30916.6563        17609.5195
  3250    32.4941    33168(182)         32722.5801        17603.6035
  3251    32.5041    37768(194)         38156.8984        17597.6875
  3252    32.5141    47156(217)         47280.2109        17591.7695
  3253    32.5241    60116(245)         58123.0469        17585.8535
  3254    32.5341    72856(270)         66490.5234        17579.9336
  3255    32.5441    74936(274)         67459.2422        17574.0176
  3256    32.5541    65172(255)         60224.8750        17568.0996
  3257    32.5641    49208(222)         49033.5430        17562.1836
  3258    32.5741    36416(191)         38263.1992        17556.2656
  3259    32.5841    28216(168)         30175.5449        17550.3496
  3260    32.5941    24024(155)         25124.0879        17544.4336
  3261    32.6041    21952(148)         22410.8496        17538.5137
  3262    32.6141    20960(145)         21084.7324        17532.5977
  3263    32.6241    20000(141)         20385.4219        17526.6797
  3264    32.6341    19624(140)         19877.8398        17520.7637
  3265    32.6441    18968(138)         19421.2285        17514.8457
  3266    32.6541    18820(137)         19021.3730        17508.9297
  3267    32.6641    18576(136)         18701.6133        17503.0117
  3268    32.6741    18416(136)         18467.6934        17497.0938
  3269    32.6841    18072(134)         18306.6191        17491.1777
  3270    32.6941    18172(135)         18200.6270        17485.2598
  3271    32.7041    17916(134)         18134.8965        17479.3438
  3272    32.7141    17996(134)         18099.0938        17473.4258
  3273    32.7241    17932(134)         18083.2539        17467.5078
  3274    32.7341    17880(134)         18072.8867        17461.5898
  3275    32.7441    17896(134)         18049.3086        17455.6738
  3276    32.7541    17964(134)         18000.2813        17449.7578
  3277    32.7641    17652(133)         17934.2363        17443.8398
  3278    32.7741    17752(133)         17871.7715        17437.9238
  3279    32.7841    17652(133)         17826.7637        17432.0039
  3280    32.7941    17800(133)         17803.9570        17426.0879
  3281    32.8041    17896(134)         17797.4785        17420.1699
  3282    32.8141    17988(134)         17794.7969        17414.2539
  3283    32.8241    17824(134)         17779.9902        17408.3359
  3284    32.8341    17748(133)         17746.5469        17402.4199
  3285    32.8441    17688(133)         17701.3555        17396.5039
  3286    32.8541    17612(133)         17656.6445        17390.5840
  3287    32.8641    17484(132)         17619.4102        17384.6680
  3288    32.8741    17448(132)         17591.4180        17378.7500
  3289    32.8841    17048(131)         17571.2246        17372.8340
  3290    32.8941    17332(132)         17551.5098        17362.1035
  3291    32.9041    17260(131)         17535.0684        17351.3770
  3292    32.9141    17276(131)         17520.7480        17340.6504
  3293    32.9241    17124(131)         17508.0781        17329.9199
  3294    32.9341    17212(131)         17496.9980        17319.1934
  3295    32.9441    17108(131)         17487.6855        17308.4629
  3296    32.9541    17316(132)         17480.6719        17297.7363
  3297    32.9641    17284(131)         17477.1484        17287.0059
  3298    32.9741    17224(131)         17479.6406        17276.2793
  3299    32.9841    17172(131)         17492.7266        17265.5488
  3300    32.9941    17276(131)         17522.0215        17254.8223
  3301    33.0041    17176(131)         17576.4512        17244.0957
  3302    33.0141    17340(132)         17659.6465        17233.3633
  3303    33.0241    17556(132)         17772.8008        17222.6367
  3304    33.0341    17816(133)         17921.2598        17211.9063
  3305    33.0441    17792(133)         18121.8203        17201.1797
  3306    33.0541    18144(135)         18445.8906        17190.4492
  3307    33.0641    18632(136)         18984.4375        17179.7227
  3308    33.0741    19620(140)         19772.6758        17168.9922
  3309    33.0841    20500(143)         20719.7402        17158.2656
  3310    33.0941    21160(145)         21547.2422        17147.5391
  3311    33.1041    20816(144)         21859.6465        17136.8086
  3312    33.1141    20692(144)         21409.5000        17126.0820
  3313    33.1241    19708(140)         20448.0410        17115.3516
  3314    33.1341    19312(139)         19399.8672        17104.6250
  3315    33.1441    18612(136)         18546.1992        17093.8945
  3316    33.1541    18144(135)         17972.9648        17083.1680
  3317    33.1641    17736(133)         17657.5430        17072.4414
  3318    33.1741    17496(132)         17531.1602        17061.7109
  3319    33.1841    17412(132)         17541.2012        17050.9844
  3320    33.1941    17572(133)         17663.9883        17040.2539
  3321    33.2041    17588(133)         17881.5254        17029.5273
  3322    33.2141    17872(134)         18150.9473        17018.7969
  3323    33.2241    17772(133)         18381.5547        17008.0703
  3324    33.2341    18016(134)         18453.4355        16997.3398
  3325    33.2441    17668(133)         18314.7012        16986.6133
  3326    33.2541    17676(133)         18046.4102        16975.8867
  3327    33.2641    17456(132)         17754.8164        16965.1563
  3328    33.2741    17460(132)         17504.0352        16954.4297
  3329    33.2841    17224(131)         17319.0371        16943.6973
  3330    33.2941    17152(131)         17197.2109        16932.9707
  3331    33.3041    16964(130)         17121.5645        16922.2402
  3332    33.3141    17152(131)         17074.6836        16911.5137
  3333    33.3241    17100(131)         17043.9727        16900.7832
  3334    33.3341    17164(131)         17018.1543        16890.0566
  3335    33.3441    17032(131)         17001.0273        16879.3301
  3336    33.3541    17120(131)         16986.6523        16868.5996
  3337    33.3641    16944(130)         16974.0176        16857.8730
  3338    33.3741    17024(130)         16962.7109        16847.1426
  3339    33.3841    16984(130)         16952.6016        16836.4160
  3340    33.3941    16980(130)         16943.6211        16825.6855
  3341    33.4041    16996(130)         16935.7949        16814.9590
  3342    33.4141    16980(130)         16912.6367        16804.2324
  3343    33.4241    16864(130)         16907.7988        16793.5020
  3344    33.4341    17032(131)         16916.8105        16795.0117
  3345    33.4441    16948(130)         16927.8398        16796.5234
  3346    33.4541    17100(131)         16944.8281        16798.0332
  3347    33.4641    17152(131)         16963.1328        16799.5449
  3348    33.4741    17112(131)         16989.9668        16801.0547
  3349    33.4841    17076(131)         17034.7676        16802.5664
  3350    33.4941    17232(131)         17115.5000        16804.0762
  3351    33.5041    17472(132)         17260.3633        16805.5859
  3352    33.5141    17684(133)         17497.0918        16807.0977
  3353    33.5241    17944(134)         17832.3945        16808.6074
  3354    33.5341    18556(136)         18227.0273        16810.1191
  3355    33.5441    18996(138)         18580.9023        16811.6289
  3356    33.5541    19408(139)         18762.8145        16813.1406
  3357    33.5641    19272(139)         18743.3594        16814.6504
  3358    33.5741    19076(138)         18693.3633        16816.1621
  3359    33.5841    19144(138)         18869.3770        16817.6719
  3360    33.5941    19816(141)         19454.2871        16819.1836
  3361    33.6041    21076(145)         20503.3438        16820.6934
  3362    33.6141    22796(151)         21839.0039        16822.2051
  3363    33.6241    24436(156)         23033.1914        16823.7148
  3364    33.6341    25308(159)         23525.0234        16825.2246
  3365    33.6441    24248(156)         23080.6582        16826.7363
  3366    33.6541    22916(151)         22062.7148        16828.2461
  3367    33.6641    21252(146)         20993.3906        16829.7578
  3368    33.6741    20352(143)         20173.0078        16831.2676
  3369    33.6841    19792(141)         19667.9941        16832.7793
  3370    33.6941    19684(140)         19445.4297        16834.2891
  3371    33.7041    19476(140)         19425.0254        16835.8008
  3372    33.7141    19344(139)         19448.3965        16837.3105
  3373    33.7241    19008(138)         19321.1211        16838.8223
  3374    33.7341    18620(136)         18967.0195        16840.3320
  3375    33.7441    18304(135)         18493.1602        16841.8438
  3376    33.7541    17868(134)         18039.6660        16843.3535
  3377    33.7641    17584(133)         17687.2969        16844.8633
  3378    33.7741    17548(132)         17456.8965        16846.3750
  3379    33.7841    17412(132)         17328.6602        16847.8848
  3380    33.7941    17448(132)         17273.6953        16849.3965
  3381    33.8041    17364(132)         17255.6328        16850.9063
  3382    33.8141    17580(133)         17262.2754        16852.4180
  3383    33.8241    17428(132)         17287.6895        16853.9277
  3384    33.8341    17484(132)         17335.4551        16855.4395
  3385    33.8441    17600(133)         17423.3613        16856.9492
  3386    33.8541    17892(134)         17596.2422        16858.4609
  3387    33.8641    18300(135)         17942.4258        16859.9707
  3388    33.8741    18876(137)         18596.3340        16861.4805
  3389    33.8841    19900(141)         19693.0117        16862.9922
  3390    33.8941    21700(147)         21265.5000        16864.5020
  3391    33.9041    23944(155)         23113.5566        16866.0137
  3392    33.9141    26184(162)         24725.8008        16867.5234
  3393    33.9241    27380(165)         25374.8242        16869.0352
  3394    33.9341    26660(163)         24690.2656        16870.5449
  3395    33.9441    24092(155)         23132.1387        16872.0566
  3396    33.9541    21896(148)         21449.5059        16873.5664
  3397    33.9641    20208(142)         20179.2930        16875.0781
  3398    33.9741    19912(141)         19617.7520        16876.5879
  3399    33.9841    20032(142)         19927.2305        16878.0996
  3400    33.9941    20892(145)         21240.1621        16879.6094
  3401    34.0041    22572(150)         23601.6406        16881.1191
  3402    34.0141    25268(159)         26783.6953        16882.6309
  3403    34.0241    27896(167)         30067.4004        16884.1406
  3404    34.0341    30704(175)         32204.3984        16885.6523
  3405    34.0441    30912(176)         32006.9590        16887.1621
  3406    34.0541    28876(170)         29626.8125        16888.6738
  3407    34.0641    25388(159)         26373.7422        16890.1836
  3408    34.0741    22404(150)         23433.5957        16891.6953
  3409    34.0841    20380(143)         21415.8086        16893.2051
  3410    34.0941    19860(141)         20403.2188        16894.7148
  3411    34.1041    19908(141)         20146.4082        16896.2266
  3412    34.1141    20380(143)         20246.0020        16897.7363
  3413    34.1241    20428(143)         20283.0879        16899.2480
  3414    34.1341    20048(142)         19991.7090        16900.7578
  3415    34.1441    19268(139)         19423.1563        16902.2695
  3416    34.1541    18704(137)         18791.4199        16903.7793
  3417    34.1641    18172(135)         18262.9336        16905.2891
  3418    34.1741    17856(134)         17910.1992        16906.8008
  3419    34.1841    17756(133)         17730.7637        16908.3105
  3420    34.1941    17860(134)         17681.8164        16909.8223
  3421    34.2041    17856(134)         17713.7910        16911.3320
  3422    34.2141    18140(135)         17772.4355        16912.8438
  3423    34.2241    17972(134)         17823.1602        16914.3535
  3424    34.2341    18068(134)         17853.2520        16915.8652
  3425    34.2441    17760(133)         17868.1719        16917.3750
  3426    34.2541    17712(133)         17862.7676        16918.8867
  3427    34.2641    17732(133)         17868.1055        16920.3965
  3428    34.2741    17856(134)         17945.1133        16921.9063
  3429    34.2841    18044(134)         18197.8301        16923.4180
  3430    34.2941    18656(137)         18779.2656        16924.9277
  3431    34.3041    19592(140)         19866.9453        16926.4395
  3432    34.3141    21344(146)         21562.4570        16927.9492
  3433    34.3241    23160(152)         23750.8262        16929.4609
  3434    34.3341    25296(159)         25963.8848        16930.9707
  3435    34.3441    26092(162)         27377.4570        16932.4824
  3436    34.3541    25864(161)         27225.0684        16933.9922
  3437    34.3641    24460(156)         25625.4258        16935.5039
  3438    34.3741    22924(151)         23431.7383        16937.0137
  3439    34.3841    21204(146)         21410.1992        16938.5254
  3440    34.3941    20164(142)         19955.0508        16940.0352
  3441    34.4041    19376(139)         19160.0078        16941.5449
  3442    34.4141    19392(139)         18986.7129        16943.0566
  3443    34.4241    19740(140)         19452.1523        16944.5664
  3444    34.4341    20812(144)         20716.0820        16946.0781
  3445    34.4441    22648(150)         23020.2578        16947.5879
  3446    34.4541    25660(160)         26453.6602        16949.0996
  3447    34.4641    29472(172)         30660.4766        16950.6094
  3448    34.4741    33896(184)         34613.2969        16952.1211
  3449    34.4841    36120(190)         36728.7227        16953.6309
  3450    34.4941    35820(189)         35918.8125        16955.1426
  3451    34.5041    31812(178)         32772.6992        16956.6523
  3452    34.5141    27324(165)         28700.8984        16958.1641
  3453    34.5241    23288(153)         24873.6797        16959.6738
  3454    34.5341    20652(144)         21942.5645        16961.1836
  3455    34.5441    19152(138)         20025.4492        16962.6953
  3456    34.5541    18524(136)         18916.6289        16964.2051
  3457    34.5641    18128(135)         18332.1230        16965.7168
  3458    34.5741    17976(134)         18040.9766        16967.2266
  3459    34.5841    17760(133)         17902.7285        16968.7383
  3460    34.5941    17892(134)         17845.1172        16970.2480
  3461    34.6041    17856(134)         17844.9160        16971.7598
  3462    34.6141    17792(133)         17909.6035        16973.2695
  3463    34.6241    17912(134)         18092.9883        16974.7813
  3464    34.6341    18524(136)         18508.2109        16976.2910
  3465    34.6441    19028(138)         19342.2559        16977.8008
  3466    34.6541    20232(142)         20811.4063        16979.3125
  3467    34.6641    22136(149)         23027.9141        16980.8223
  3468    34.6741    24744(157)         25816.9922        16982.3340
  3469    34.6841    27204(165)         28558.8906        16983.8438
  3470    34.6941    29052(170)         30215.9004        16985.3555
  3471    34.7041    28612(169)         29874.2930        16986.8652
  3472    34.7141    26532(163)         27733.8047        16988.3770
  3473    34.7241    23856(154)         24867.9414        16989.8867
  3474    34.7341    21444(146)         22213.7832        16991.3984
  3475    34.7441    19880(141)         20244.0020        16992.9082
  3476    34.7541    18984(138)         19029.5176        16994.4180
  3477    34.7641    18396(136)         18420.8262        16995.9297
  3478    34.7741    18208(135)         18236.0762        16997.4395
  3479    34.7841    18228(135)         18353.0195        16998.9512
  3480    34.7941    18672(137)         18710.6914        17000.4609
  3481    34.8041    18996(138)         19258.7949        17001.9727
  3482    34.8141    19896(141)         19904.0293        17003.4824
  3483    34.8241    20604(144)         20485.8203        17004.9941
  3484    34.8341    21132(145)         20858.6719        17006.5039
  3485    34.8441    21392(146)         21016.6250        17008.0137
  3486    34.8541    21348(146)         21027.9688        17009.5254
  3487    34.8641    21212(146)         20905.8828        17011.0352
  3488    34.8741    20996(145)         20631.9141        17012.5469
  3489    34.8841    20244(142)         20167.1484        17014.0566
  3490    34.8941    19712(140)         19542.4414        17015.5684
  3491    34.9041    19196(139)         18896.2695        17017.0781
  3492    34.9141    18584(136)         18351.7773        17018.5879
  3493    34.9241    18048(134)         17962.2031        17020.0996
  3494    34.9341    17852(134)         17719.5371        17021.6094
  3495    34.9441    17672(133)         17600.4629        17023.1211
  3496    34.9541    17612(133)         17561.8770        17024.6309
  3497    34.9641    17568(133)         17573.8496        17026.1426
  3498    34.9741    17712(133)         17610.5313        17022.9063
  3499    34.9841    17440(132)         17658.8906        17019.6699
  3500    34.9941    17736(133)         17701.1719        17016.4355
  3501    35.0041    17792(133)         17726.3750        17013.1992
  3502    35.0141    17868(134)         17743.1523        17009.9629
  3503    35.0241    17916(134)         17774.6074        17006.7285
  3504    35.0341    18092(135)         17855.2930        17003.4902
  3505    35.0441    18292(135)         18035.3418        17000.2559
  3506    35.0541    18904(137)         18404.7461        16997.0195
  3507    35.0641    19572(140)         19104.8867        16993.7832
  3508    35.0741    20940(145)         20313.3750        16990.5469
  3509    35.0841    22904(151)         22180.3086        16987.3105
  3510    35.0941    26208(162)         24742.5469        16984.0762
  3511    35.1041    29320(171)         27833.6094        16980.8398
  3512    35.1141    33020(182)         31024.0469        16977.6035
  3513    35.1241    35888(189)         33846.0625        16974.3672
  3514    35.1341    37428(193)         36134.7188        16971.1309
  3515    35.1441    37376(193)         37630.8750        16967.8945
  3516    35.1541    36068(190)         37558.5078        16964.6602
  3517    35.1641    33632(183)         35376.6914        16961.4238
  3518    35.1741    31992(179)         31781.5059        16958.1875
  3519    35.1841    30188(174)         28053.0293        16954.9531
  3520    35.1941    27876(167)         25056.2695        16951.7148
  3521    35.2041    25328(159)         23016.2598        16948.4805
  3522    35.2141    23496(153)         21675.7266        16945.2441
  3523    35.2241    21768(148)         20663.5625        16942.0078
  3524    35.2341    20812(144)         19810.8789        16938.7715
  3525    35.2441    19920(141)         19120.3711        16935.5352
  3526    35.2541    19488(140)         18622.3242        16932.3008
  3527    35.2641    19096(138)         18331.5020        16929.0645
  3528    35.2741    18988(138)         18217.5820        16925.8281
  3529    35.2841    18696(137)         18239.5449        16922.5918
  3530    35.2941    18912(138)         18377.4199        16919.3574
  3531    35.3041    19072(138)         18653.0742        16916.1191
  3532    35.3141    19500(140)         19089.2480        16912.8848
  3533    35.3241    19828(141)         19652.0137        16909.6484
  3534    35.3341    20468(143)         20216.5527        16906.4121
  3535    35.3441    20528(143)         20596.1875        16903.1777
  3536    35.3541    20308(143)         20699.3301        16899.9395
  3537    35.3641    20224(142)         20634.1309        16896.7051
  3538    35.3741    20184(142)         20530.1055        16893.4688
  3539    35.3841    19780(141)         20403.2109        16890.2324
  3540    35.3941    19644(140)         20184.8906        16886.9961
  3541    35.4041    18888(137)         19806.2148        16883.7598
  3542    35.4141    18432(136)         19273.6270        16880.5254
  3543    35.4241    18196(135)         18715.9395        16877.2891
  3544    35.4341    18036(134)         18267.0605        16874.0527
  3545    35.4441    18032(134)         18012.0664        16870.8164
  3546    35.4541    18052(134)         17999.1582        16867.5820
  3547    35.4641    18216(135)         18254.5273        16864.3438
  3548    35.4741    18948(138)         18781.0410        16861.1094
  3549    35.4841    19748(141)         19532.0254        16857.8730
  3550    35.4941    20912(145)         20369.3340        16854.6367
  3551    35.5041    21528(147)         21065.2715        16851.4023
  3552    35.5141    21664(147)         21400.4004        16848.1641
  3553    35.5241    20952(145)         21290.5977        16844.9297
  3554    35.5341    20664(144)         20884.2246        16841.6934
  3555    35.5441    20320(143)         20491.6289        16838.4570
  3556    35.5541    20428(143)         20332.6406        16835.2207
  3557    35.5641    20768(144)         20411.2441        16831.9844
  3558    35.5741    21108(145)         20525.3535        16828.7480
  3559    35.5841    20644(144)         20393.6016        16825.5137
  3560    35.5941    20204(142)         19922.6406        16822.2773
  3561    35.6041    19320(139)         19289.5918        16819.0410
  3562    35.6141    18888(137)         18729.4805        16815.8066
  3563    35.6241    18384(136)         18425.6914        16812.5684
  3564    35.6341    18460(136)         18455.0469        16809.3340
  3565    35.6441    18364(136)         18797.1172        16806.0977
  3566    35.6541    18596(136)         19329.6426        16802.8613
  3567    35.6641    18616(136)         19835.4160        16799.6270
  3568    35.6741    19000(138)         20043.0156        16796.3887
  3569    35.6841    18868(137)         19797.9258        16793.1543
  3570    35.6941    18796(137)         19218.6973        16789.9180
  3571    35.7041    18232(135)         18546.8555        16786.6816
  3572    35.7141    17712(133)         17960.2188        16783.4453
  3573    35.7241    17408(132)         17536.9844        16780.2109
  3574    35.7341    17164(131)         17274.8691        16776.9727
  3575    35.7441    17100(131)         17130.6641        16773.7383
  3576    35.7541    17136(131)         17066.9785        16770.5020
  3577    35.7641    17104(131)         17026.2148        16767.2656
  3578    35.7741    16992(130)         16998.4004        16764.0313
  3579    35.7841    17000(130)         16976.5918        16760.7930
  3580    35.7941    17024(130)         16958.1270        16757.5586
  3581    35.8041    17008(130)         16944.3652        16754.3223
  3582    35.8141    17048(131)         16935.0762        16751.0859
  3583    35.8241    16880(130)         16930.6836        16747.8496
  3584    35.8341    16960(130)         16968.6270        16781.5469
  3585    35.8441    16952(130)         17012.2891        16815.2441
  3586    35.8541    16868(130)         17061.1230        16848.9551
  3587    35.8641    16976(130)         17076.5703        16846.2852
  3588    35.8741    17064(131)         17091.1074        16843.6152
  3589    35.8841    16936(130)         17100.7617        16840.9473
  3590    35.8941    16960(130)         17106.5625        16838.2773
  3591    35.9041    17008(130)         17116.9531        16835.6074
  3592    35.9141    17112(131)         17143.1348        16832.9375
  3593    35.9241    17092(131)         17194.0391        16830.2676
  3594    35.9341    17060(131)         17271.1445        16827.5996
  3595    35.9441    17156(131)         17364.7227        16824.9297
  3596    35.9541    17284(131)         17451.9063        16822.2598
  3597    35.9641    17200(131)         17502.3848        16819.5898
  3598    35.9741    17368(132)         17501.0938        16816.9199
  3599    35.9841    17336(132)         17466.9766        16814.2500
  3600    35.9941    17320(132)         17433.6602        16811.5820
  3601    36.0041    17304(132)         17429.9219        16808.9121
  3602    36.0141    17596(133)         17481.8027        16806.2422
  3603    36.0241    17788(133)         17629.1777        16803.5723
  3604    36.0341    18240(135)         17953.4824        16800.9023
  3605    36.0441    18808(137)         18618.6211        16798.2344
  3606    36.0541    19844(141)         19864.0645        16795.5645
  3607    36.0641    21728(147)         21935.7109        16792.8945
  3608    36.0741    25300(159)         24914.2148        16790.2246
  3609    36.0841    29568(172)         28510.9199        16787.5547
  3610    36.0941    34572(186)         31900.1914        16784.8867
  3611    36.1041    36736(192)         33799.0625        16782.2168
  3612    36.1141    35624(189)         33196.6094        16779.5469
  3613    36.1241    31408(177)         30442.6367        16776.8770
  3614    36.1341    26456(163)         26830.5313        16774.2070
  3615    36.1441    22532(150)         23476.7305        16771.5371
  3616    36.1541    20184(142)         20966.3789        16768.8691
  3617    36.1641    18784(137)         19411.5801        16766.1992
  3618    36.1741    18392(136)         18643.5898        16763.5293
  3619    36.1841    18280(135)         18406.4492        16760.8594
  3620    36.1941    18392(136)         18465.4512        16758.1895
  3621    36.2041    18480(136)         18627.6367        16755.5215
  3622    36.2141    18540(136)         18720.5605        16752.8496
  3623    36.2241    18252(135)         18628.4277        16750.1816
  3624    36.2341    18076(134)         18362.0391        16747.5117
  3625    36.2441    17664(133)         18027.1348        16744.8418
  3626    36.2541    17532(132)         17721.8652        16742.1738
  3627    36.2641    17392(132)         17503.6270        16739.5020
  3628    36.2741    17476(132)         17397.0137        16736.8340
  3629    36.2841    17304(132)         17419.0684        16734.1641
  3630    36.2941    17700(133)         17595.5703        16731.4941
  3631    36.3041    17732(133)         17965.6621        16728.8242
  3632    36.3141    18272(135)         18553.1797        16726.1543
  3633    36.3241    19064(138)         19317.4258        16723.4844
  3634    36.3341    19880(141)         20113.1719        16720.8164
  3635    36.3441    20240(142)         20681.3750        16718.1465
  3636    36.3541    20268(142)         20752.9941        16715.4766
  3637    36.3641    19788(141)         20302.9414        16712.8066
  3638    36.3741    19336(139)         19588.1621        16710.1367
  3639    36.3841    18584(136)         18892.4395        16707.4688
  3640    36.3941    18264(135)         18379.0039        16704.7988
  3641    36.4041    18128(135)         18080.0664        16702.1289
  3642    36.4141    17868(134)         17926.4922        16699.4590
  3643    36.4241    17640(133)         17814.6406        16696.7891
  3644    36.4341    17620(133)         17681.2773        16694.1211
  3645    36.4441    17656(133)         17533.1719        16691.4512
  3646    36.4541    17556(132)         17402.8594        16688.7813
  3647    36.4641    17412(132)         17324.1895        16686.1113
  3648    36.4741    17768(133)         17323.5195        16683.4414
  3649    36.4841    17696(133)         17428.5176        16680.7715
  3650    36.4941    18024(134)         17669.0449        16678.1035
  3651    36.5041    18380(136)         18063.4023        16675.4336
  3652    36.5141    19096(138)         18590.4980        16672.7637
  3653    36.5241    19212(139)         19163.1406        16670.0938
  3654    36.5341    19604(140)         19618.1797        16667.4238
  3655    36.5441    19780(141)         19767.6406        16664.7559
  3656    36.5541    19696(140)         19562.8789        16662.0859
  3657    36.5641    19448(139)         19161.8984        16659.4160
  3658    36.5741    19432(139)         18773.5762        16656.7461
  3659    36.5841    19056(138)         18543.6660        16654.0762
  3660    36.5941    19056(138)         18538.9043        16651.4082
  3661    36.6041    19348(139)         18771.5723        16648.7383
  3662    36.6141    20008(141)         19262.5000        16646.0684
  3663    36.6241    21008(145)         20123.9746        16643.3984
  3664    36.6341    22444(150)         21659.2656        16640.7285
  3665    36.6441    24608(157)         24386.8125        16638.0586
  3666    36.6541    28500(169)         28816.8516        16635.3906
  3667    36.6641    34472(186)         35029.3125        16632.7207
  3668    36.6741    43384(208)         42249.8984        16630.0508
  3669    36.6841    51468(227)         48616.7344        16627.3809
  3670    36.6941    55460(235)         51525.5938        16624.7109
  3671    36.7041    51476(227)         49362.5859        16622.0430
  3672    36.7141    43184(208)         43290.8047        16619.3711
  3673    36.7241    33216(182)         35904.2773        16616.7031
  3674    36.7341    26324(162)         29233.9609        16614.0332
  3675    36.7441    22112(149)         24263.4590        16611.3633
  3676    36.7541    20156(142)         21081.9766        16608.6953
  3677    36.7641    18996(138)         19280.2109        16606.0234
  3678    36.7741    18608(136)         18341.3203        16603.3555
  3679    36.7841    17960(134)         17855.8281        16600.6855
  3680    36.7941    17776(133)         17586.0117        16598.0156
  3681    36.8041    17616(133)         17414.5625        16595.3457
  3682    36.8141    17528(132)         17291.5391        16592.6758
  3683    36.8241    17396(132)         17196.3105        16590.0059
  3684    36.8341    17304(132)         17119.8379        16587.3379
  3685    36.8441    16988(130)         17057.1309        16584.6680
  3686    36.8541    17076(131)         17005.0254        16581.9980
  3687    36.8641    16852(130)         16961.3770        16579.3301
  3688    36.8741    17208(131)         16924.6152        16576.6582
  3689    36.8841    17032(131)         16893.7305        16573.9902
  3690    36.8941    16988(130)         16867.9980        16571.3203
  3691    36.9041    16824(130)         16846.7441        16568.6504
  3692    36.9141    16992(130)         16829.5273        16565.9824
  3693    36.9241    16912(130)         16815.1953        16563.3105
  3694    36.9341    16960(130)         16802.3340        16560.6426
  3695    36.9441    16832(130)         16789.4063        16557.9727
  3696    36.9541    16992(130)         16775.8379        16555.3027
  3697    36.9641    16632(129)         16762.4141        16552.6328
  3698    36.9741    16880(130)         16761.3301        16551.0723
  3699    36.9841    16848(130)         16752.6914        16549.5117
  3700    36.9941    16844(130)         16746.6973        16547.9531
  3701    37.0041    16788(130)         16743.0957        16546.3926
  3702    37.0141    16704(129)         16741.9375        16544.8320
  3703    37.0241    16756(129)         16743.2500        16543.2734
  3704    37.0341    16920(130)         16747.2813        16541.7129
  3705    37.0441    16752(129)         16754.7285        16540.1523
  3706    37.0541    16784(130)         16762.0684        16538.5918
  3707    37.0641    16816(130)         16784.0625        16537.0332
  3708    37.0741    17072(131)         16825.2617        16535.4727
  3709    37.0841    16880(130)         16906.4883        16533.9121
  3710    37.0941    17164(131)         17064.8945        16532.3535
  3711    37.1041    17164(131)         17353.5547        16530.7930
  3712    37.1141    17800(133)         17824.6445        16529.2324
  3713    37.1241    18404(136)         18499.3027        16527.6719
  3714    37.1341    19528(140)         19324.9297        16526.1133
  3715    37.1441    20424(143)         20146.5801        16524.5527
  3716    37.1541    21272(146)         20713.9863        16522.9922
  3717    37.1641    21412(146)         20818.9414        16521.4336
  3718    37.1741    20756(144)         20473.6426        16519.8730
  3719    37.1841    19580(140)         19831.5664        16518.3125
  3720    37.1941    18848(137)         19061.1270        16516.7520
  3721    37.2041    17996(134)         18327.5762        16515.1934
  3722    37.2141    17768(133)         17739.1641        16513.6328
  3723    37.2241    17308(132)         17325.9941        16512.0723
  3724    37.2341    17256(131)         17066.0664        16510.5117
  3725    37.2441    16932(130)         16918.1895        16508.9531
  3726    37.2541    16804(130)         16842.1309        16507.3926
  3727    37.2641    16668(129)         16809.3574        16505.8320
  3728    37.2741    16792(130)         16805.8984        16504.2715
  3729    37.2841    16896(130)         16832.2148        16502.7109
  3730    37.2941    16984(130)         16901.3887        16501.1523
  3731    37.3041    17064(131)         17041.4473        16499.5918
  3732    37.3141    17092(131)         17278.5586        16498.0313
  3733    37.3241    17112(131)         17623.6289        16496.4707
  3734    37.3341    17436(132)         18047.3105        16494.9121
  3735    37.3441    17544(132)         18464.5430        16493.3516
  3736    37.3541    17668(133)         18738.4570        16491.7910
  3737    37.3641    17616(133)         18745.1387        16490.2324
  3738    37.3741    17772(133)         18499.5742        16488.6719
  3739    37.3841    17508(132)         18149.8770        16487.1113
  3740    37.3941    17716(133)         17860.1660        16485.5508
  3741    37.4041    17972(134)         17763.5742        16483.9922
  3742    37.4141    18096(135)         17959.6797        16482.4316
  3743    37.4241    18544(136)         18519.0781        16480.8711
  3744    37.4341    19356(139)         19428.2754        16479.3125
  3745    37.4441    19912(141)         20595.4141        16477.7520
  3746    37.4541    20984(145)         21764.6875        16476.1914
  3747    37.4641    21404(146)         22573.7930        16474.6309
  3748    37.4741    21752(147)         22697.7969        16473.0723
  3749    37.4841    20900(145)         22103.7227        16471.5117
  3750    37.4941    20220(142)         21097.7617        16469.9512
  3751    37.5041    18896(137)         20067.1543        16468.3926
  3752    37.5141    18284(135)         19250.4883        16466.8320
  3753    37.5241    17856(134)         18706.7988        16465.2715
  3754    37.5341    17828(134)         18341.1797        16463.7109
  3755    37.5441    17548(132)         18042.2676        16462.1523
  3756    37.5541    17420(132)         17749.2617        16460.5918
  3757    37.5641    17236(131)         17470.7324        16459.0313
  3758    37.5741    17120(131)         17234.7480        16457.4707
  3759    37.5841    16932(130)         17059.2363        16455.9121
  3760    37.5941    17024(130)         16946.2344        16454.3516
  3761    37.6041    16988(130)         16885.0742        16452.7910
  3762    37.6141    17020(130)         16866.9160        16455.9082
  3763    37.6241    17004(130)         16877.9609        16459.0273
  3764    37.6341    17040(131)         16917.8555        16462.1445
  3765    37.6441    17168(131)         16996.8418        16465.2637
  3766    37.6541    17264(131)         17128.6367        16468.3809
  3767    37.6641    17568(133)         17372.0918        16471.5000
  3768    37.6741    18408(136)         17770.6094        16474.6172
  3769    37.6841    19028(138)         18383.0469        16477.7363
  3770    37.6941    20308(143)         19244.9648        16480.8555
  3771    37.7041    21404(146)         20325.2402        16483.9727
  3772    37.7141    22412(150)         21501.4707        16487.0918
  3773    37.7241    22596(150)         22521.7305        16490.2090
  3774    37.7341    22508(150)         23012.5215        16493.3281
  3775    37.7441    21612(147)         22700.1152        16496.4453
  3776    37.7541    21104(145)         21719.9199        16499.5625
  3777    37.7641    20368(143)         20476.3516        16502.6816
  3778    37.7741    19664(140)         19320.5273        16505.7988
  3779    37.7841    18740(137)         18439.2754        16508.9180
  3780    37.7941    18408(136)         17873.4180        16512.0352
  3781    37.8041    17756(133)         17569.7637        16515.1543
  3782    37.8141    17736(133)         17445.9043        16518.2715
  3783    37.8241    17676(133)         17432.6973        16521.3906
  3784    37.8341    18056(134)         17491.5488        16524.5078
  3785    37.8441    18000(134)         17617.1602        16527.6270
  3786    37.8541    18464(136)         17845.0781        16530.7441
  3787    37.8641    18792(137)         18276.4941        16533.8633
  3788    37.8741    19872(141)         19121.5234        16536.9824
  3789    37.8841    21204(146)         20729.1914        16540.0996
  3790    37.8941    23856(154)         23548.5742        16543.2188
  3791    37.9041    27576(166)         27940.5020        16546.3359
  3792    37.9141    33872(184)         33868.6914        16549.4531
  3793    37.9241    40980(202)         40577.7695        16552.5723
  3794    37.9341    47840(219)         46423.5195        16555.6895
  3795    37.9441    50884(226)         49186.7813        16558.8086
  3796    37.9541    48172(219)         47485.9883        16561.9258
  3797    37.9641    40856(202)         42224.9180        16565.0449
  3798    37.9741    32952(182)         35584.9414        16568.1621
  3799    37.9841    26472(163)         29382.0391        16571.2813
  3800    37.9941    22652(151)         24592.7188        16574.3984
  3801    38.0041    20420(143)         21413.7422        16577.5176
  3802    38.0141    19236(139)         19562.4121        16580.6348
  3803    38.0241    18336(135)         18606.5957        16583.7539
  3804    38.0341    18148(135)         18176.7051        16586.8730
  3805    38.0441    17948(134)         18034.4063        16589.9902
  3806    38.0541    17744(133)         18040.4023        16593.1094
  3807    38.0641    17752(133)         18104.3848        16596.2266
  3808    38.0741    17764(133)         18147.5352        16599.3457
  3809    38.0841    17612(133)         18103.3789        16602.4629
  3810    38.0941    17556(132)         17957.5684        16605.5801
  3811    38.1041    17396(132)         17754.8750        16608.6992
  3812    38.1141    17332(132)         17551.7480        16611.8164
  3813    38.1241    17268(131)         17384.8203        16614.9355
  3814    38.1341    17228(131)         17272.0430        16618.0527
  3815    38.1441    17144(131)         17210.7949        16621.1719
  3816    38.1541    17456(132)         17191.7813        16624.2891
  3817    38.1641    17404(132)         17201.7168        16627.4082
  3818    38.1741    17560(133)         17227.5352        16630.5254
  3819    38.1841    17532(132)         17256.0254        16633.6445
  3820    38.1941    17512(132)         17275.1172        16636.7617
  3821    38.2041    17448(132)         17280.2578        16639.8809
  3822    38.2141    17660(133)         17278.1934        16643.0000
  3823    38.2241    17388(132)         17279.8398        16646.1172
  3824    38.2341    17496(132)         17293.8809        16649.2363
  3825    38.2441    17700(133)         17325.3066        16652.3535
  3826    38.2541    17784(133)         17377.6406        16655.4707
  3827    38.2641    17820(133)         17457.2832        16658.5898
  3828    38.2741    18060(134)         17572.0176        16661.7070
  3829    38.2841    18184(135)         17740.3262        16664.8262
  3830    38.2941    18608(136)         17981.4766        16667.9434
  3831    38.3041    18892(137)         18313.5801        16671.0625
  3832    38.3141    19672(140)         18754.3906        16674.1797
  3833    38.3241    20348(143)         19340.9844        16677.2988
  3834    38.3341    21368(146)         20175.7754        16680.4160
  3835    38.3441    22500(150)         21500.7637        16683.5352
  3836    38.3541    24952(158)         23743.2148        16686.6523
  3837    38.3641    28720(169)         27386.6875        16689.7715
  3838    38.3741    34648(186)         32695.4609        16692.8906
  3839    38.3841    41612(204)         39376.6133        16696.0078
  3840    38.3941    48440(220)         46325.4414        16699.1270
  3841    38.4041    52360(229)         51610.4609        16702.2441
  3842    38.4141    53336(231)         53312.4688        16705.3613
  3843    38.4241    50960(226)         50929.4688        16708.4805
  3844    38.4341    46324(215)         45645.0313        16711.5977
  3845    38.4441    41072(203)         39551.5352        16714.7168
  3846    38.4541    36624(191)         34644.4844        16717.8340
  3847    38.4641    33724(184)         32108.2793        16720.9531
  3848    38.4741    35036(187)         32176.1133        16724.0703
  3849    38.4841    37388(193)         34211.2656        16727.1895
  3850    38.4941    38796(197)         36890.1094        16730.3066
  3851    38.5041    37860(195)         38503.0039        16733.4258
  3852    38.5141    35120(187)         37718.1563        16736.5430
  3853    38.5241    31572(178)         34619.7344        16739.6621
  3854    38.5341    28932(170)         30405.5547        16742.7813
  3855    38.5441    26292(162)         26277.3516        16745.8984
  3856    38.5541    23860(154)         22945.9219        16749.0176
  3857    38.5641    21516(147)         20634.5039        16752.1348
  3858    38.5741    20144(142)         19216.4531        16755.2539
  3859    38.5841    18880(137)         18424.4531        16758.3711
  3860    38.5941    18432(136)         18002.9922        16761.4883
  3861    38.6041    18040(134)         17778.1719        16764.6074
  3862    38.6141    17904(134)         17656.9531        16767.7246
  3863    38.6241    17616(133)         17600.2129        16770.8438
  3864    38.6341    17632(133)         17597.1426        16773.9609
  3865    38.6441    17572(133)         17646.3770        16777.0801
  3866    38.6541    17896(134)         17743.2422        16780.1973
  3867    38.6641    18316(135)         17871.1016        16783.3164
  3868    38.6741    18720(137)         17999.2676        16786.4336
  3869    38.6841    18676(137)         18083.8809        16789.5527
  3870    38.6941    18664(137)         18088.2109        16792.6699
  3871    38.7041    18208(135)         18015.8105        16795.7891
  3872    38.7141    17988(134)         17897.4199        16798.9082
  3873    38.7241    17508(132)         17763.2461        16802.0254
  3874    38.7341    17228(131)         17624.2734        16805.1445
  3875    38.7441    17176(131)         17493.2813        16808.2617
  3876    38.7541    17140(131)         17373.5352        16811.3789
  3877    38.7641    16968(130)         17274.4844        16814.4980
  3878    38.7741    17096(131)         17200.5898        16817.6152
  3879    38.7841    16908(130)         17150.4883        16820.7344
  3880    38.7941    17032(131)         17120.1172        16823.8516
  3881    38.8041    16852(130)         17104.4258        16826.9707
  3882    38.8141    16860(130)         17099.0391        16830.0879
  3883    38.8241    16852(130)         17101.0996        16833.2070
  3884    38.8341    16992(130)         17109.6270        16836.3242
  3885    38.8441    16952(130)         17126.0605        16839.4434
  3886    38.8541    17080(131)         17155.9629        16842.5605
  3887    38.8641    17116(131)         17212.7617        16845.6797
  3888    38.8741    17248(131)         17323.2500        16848.7988
  3889    38.8841    17200(131)         17530.8574        16851.9160
  3890    38.8941    17764(133)         17890.5332        16855.0352
  3891    38.9041    18236(135)         18446.2070        16858.1523
  3892    38.9141    19236(139)         19194.9609        16861.2695
  3893    38.9241    20340(143)         20038.9102        16864.3887
  3894    38.9341    21548(147)         20805.3691        16867.5059
  3895    38.9441    21968(148)         21216.4805        16870.6250
  3896    38.9541    21852(148)         21080.3984        16873.7422
  3897    38.9641    20724(144)         20475.2129        16876.8613
  3898    38.9741    19480(140)         19670.1602        16879.9785
  3899    38.9841    18472(136)         18915.7637        16883.0977
  3900    38.9941    17940(134)         18365.0371        16886.2148
  3901    39.0041    17544(132)         18066.9102        16889.3340
  3902    39.0141    17856(134)         17988.9629        16892.4512
  3903    39.0241    17936(134)         18048.8711        16895.5703
  3904    39.0341    18192(135)         18142.0625        16898.6875
  3905    39.0441    18064(134)         18167.8086        16901.8066
  3906    39.0541    18032(134)         18075.0898        16904.9258
  3907    39.0641    17652(133)         17890.6582        16908.0430
  3908    39.0741    17496(132)         17677.1348        16911.1621
  3909    39.0841    17160(131)         17484.9531        16914.2793
  3910    39.0941    16992(130)         17340.0918        16917.3965
  3911    39.1041    16700(129)         17246.8223        16920.5156
  3912    39.1141    16888(130)         17195.8848        16923.6328
  3913    39.1241    16572(129)         17174.3750        16926.7520
  3914    39.1341    16808(130)         17164.3789        16923.0156
  3915    39.1441    16748(129)         17167.2773        16919.2793
  3916    39.1541    16652(129)         17182.9102        16915.5430
  3917    39.1641    16684(129)         17217.3438        16911.8086
  3918    39.1741    16828(130)         17285.2656        16908.0703
  3919    39.1841    16776(130)         17412.4863        16904.3359
  3920    39.1941    17132(131)         17639.7109        16900.5996
  3921    39.2041    17348(132)         18017.3125        16896.8633
  3922    39.2141    17892(134)         18590.2402        16893.1270
  3923    39.2241    18328(135)         19365.3789        16889.3906
  3924    39.2341    19132(138)         20279.1309        16885.6543
  3925    39.2441    19684(140)         21181.7051        16881.9180
  3926    39.2541    20432(143)         21845.4551        16878.1816
  3927    39.2641    20760(144)         22023.4551        16874.4453
  3928    39.2741    20480(143)         21638.2051        16870.7090
  3929    39.2841    20084(142)         20865.7734        16866.9727
  3930    39.2941    19472(140)         19970.5898        16863.2363
  3931    39.3041    18736(137)         19169.3613        16859.5000
  3932    39.3141    18404(136)         18584.0508        16855.7656
  3933    39.3241    18060(134)         18232.5684        16852.0273
  3934    39.3341    18012(134)         18061.5742        16848.2930
  3935    39.3441    17804(133)         17989.3203        16844.5566
  3936    39.3541    18084(134)         17939.3086        16840.8203
  3937    39.3641    18012(134)         17896.4258        16837.0840
  3938    39.3741    18140(135)         17900.5234        16833.3477
  3939    39.3841    18228(135)         18008.6426        16829.6113
  3940    39.3941    18544(136)         18250.9902        16825.8750
  3941    39.4041    19008(138)         18635.7930        16822.1387
  3942    39.4141    19564(140)         19086.1621        16818.4023
  3943    39.4241    19572(140)         19485.9512        16814.6660
  3944    39.4341    19868(141)         19691.8164        16810.9297
  3945    39.4441    19768(141)         19640.3828        16807.1934
  3946    39.4541    19688(140)         19371.4805        16803.4590
  3947    39.4641    19320(139)         18978.5723        16799.7207
  3948    39.4741    18908(138)         18571.9629        16795.9863
  3949    39.4841    18480(136)         18255.9570        16792.2480
  3950    39.4941    18412(136)         18116.6348        16788.5137
  3951    39.5041    18344(135)         18203.6484        16784.7773
  3952    39.5141    19048(138)         18543.8652        16781.0410
  3953    39.5241    19896(141)         19090.3340        16777.3047
  3954    39.5341    21084(145)         19731.4297        16773.5684
  3955    39.5441    21556(147)         20275.8379        16769.8320
  3956    39.5541    21676(147)         20504.7930        16766.0957
  3957    39.5641    20992(145)         20303.8984        16762.3594
  3958    39.5741    20196(142)         19770.9473        16758.6230
  3959    39.5841    19228(139)         19102.1563        16754.8867
  3960    39.5941    18708(137)         18485.0332        16751.1523
  3961    39.6041    17968(134)         18027.7129        16747.4141
  3962    39.6141    17920(134)         17766.0703        16743.6797
  3963    39.6241    17736(133)         17683.8691        16739.9414
  3964    39.6341    17904(134)         17736.8145        16736.2070
  3965    39.6441    18044(134)         17872.0020        16732.4688
  3966    39.6541    18292(135)         18038.3516        16728.7344
  3967    39.6641    18384(136)         18205.1836        16724.9980
  3968    39.6741    18844(137)         18403.9102        16721.2617
  3969    39.6841    19220(139)         18766.9121        16717.5254
  3970    39.6941    20072(142)         19519.1621        16713.7891
  3971    39.7041    21392(146)         20879.0703        16710.0527
  3972    39.7141    23600(154)         23007.7910        16706.3164
  3973    39.7241    26096(162)         25849.6289        16702.5801
  3974    39.7341    29864(173)         29020.2344        16698.8438
  3975    39.7441    33696(184)         31757.9121        16695.1074
  3976    39.7541    36380(191)         33097.4688        16691.3730
  3977    39.7641    35428(188)         32447.0234        16687.6348
  3978    39.7741    32148(179)         30108.7578        16683.9004
  3979    39.7841    27116(165)         26965.7773        16680.1621
  3980    39.7941    23132(152)         23872.3477        16676.4277
  3981    39.8041    20472(143)         21347.6211        16672.6895
  3982    39.8141    18868(137)         19565.4883        16668.9551
  3983    39.8241    17792(133)         18449.8496        16665.2168
  3984    39.8341    17752(133)         17817.6660        16661.4824
  3985    39.8441    17132(131)         17484.9355        16657.7461
  3986    39.8541    17288(131)         17321.2793        16654.0098
  3987    39.8641    17216(131)         17255.2109        16650.2734
  3988    39.8741    17204(131)         17256.8262        16646.5371
  3989    39.8841    17136(131)         17316.5488        16642.8008
  3990    39.8941    17168(131)         17427.1270        16639.0645
  3991    39.9041    17084(131)         17570.7305        16635.3281
  3992    39.9141    17416(132)         17715.2422        16631.5938
  3993    39.9241    17544(132)         17818.0273        16627.8555
  3994    39.9341    17744(133)         17850.8105        16624.1211
  3995    39.9441    17396(132)         17833.5840        16620.3828
  3996    39.9541    17512(132)         17811.6602        16616.6484
  3997    39.9641    17252(131)         17822.2363        16612.9102
  3998    39.9741    17400(132)         17859.3145        16609.1758
  3999    39.9841    17160(131)         17881.0234        16605.4375
  4000    39.9941    17476(132)         17835.5137        16601.7031
  4001    40.0041    17304(132)         17705.2148        16597.9668
  4002    40.0141    17288(131)         17517.3320        16594.2305
  4003    40.0241    16976(130)         17317.1602        16590.4941
  4004    40.0341    16944(130)         17141.9668        16586.7578
  4005    40.0441    16932(130)         17011.7949        16583.0215
  4006    40.0541    16844(130)         16930.8320        16579.2852
  4007    40.0641    16856(130)         16936.5625        16615.8750
  4008    40.0741    16892(130)         16984.1836        16652.4785
  4009    40.0841    16880(130)         17072.8340        16689.0703
  4010    40.0941    17236(131)         17204.1758        16725.6602
  4011    40.1041    17348(132)         17377.6133        16762.2637
  4012    40.1141    17864(134)         17583.6230        16798.8535
  4013    40.1241    17904(134)         17800.3125        16835.4590
  4014    40.1341    18032(134)         17997.4063        16872.0488
  4015    40.1441    18036(134)         18146.9023        16908.6523
  4016    40.1541    18216(135)         18231.5605        16945.2422
  4017    40.1641    18176(135)         18260.5117        16981.8340
  4018    40.1741    18224(135)         18259.3477        17018.4375
  4019    40.1841    17992(134)         18240.0605        17055.0273
  4020    40.1941    17788(133)         18191.5469        17091.6309
  4021    40.2041    17368(132)         18104.8984        17128.2227
  4022    40.2141    17292(131)         17996.4043        17164.8262
  4023    40.2241    17084(131)         17901.2813        17201.4160
  4024    40.2341    17292(131)         17786.6621        17196.7598
  4025    40.2441    17136(131)         17711.6797        17192.1035
  4026    40.2541    17256(131)         17680.2520        17187.4473
  4027    40.2641    17120(131)         17695.2305        17182.7910
  4028    40.2741    17332(132)         17767.4102        17178.1348
  4029    40.2841    17372(132)         17932.3613        17173.4785
  4030    40.2941    17912(134)         18251.1738        17168.8223
  4031    40.3041    18100(135)         18814.5313        17164.1660
  4032    40.3141    19296(139)         19714.3184        17159.5098
  4033    40.3241    20492(143)         20993.3711        17154.8535
  4034    40.3341    22832(151)         22574.5918        17150.1973
  4035    40.3441    24816(158)         24212.9219        17145.5430
  4036    40.3541    26424(163)         25499.1797        17140.8848
  4037    40.3641    26748(164)         25974.3906        17136.2305
  4038    40.3741    26212(162)         25422.1602        17131.5723
  4039    40.3841    24472(156)         24091.3379        17126.9160
  4040    40.3941    22740(151)         22472.2070        17122.2598
  4041    40.4041    21008(145)         20980.3613        17117.6035
  4042    40.4141    19692(140)         19848.6133        17112.9492
  4043    40.4241    18900(137)         19139.1797        17108.2910
  4044    40.4341    18768(137)         18795.2500        17103.6367
  4045    40.4441    18720(137)         18703.6484        17098.9785
  4046    40.4541    19192(139)         18749.5449        17094.3242
  4047    40.4641    19156(138)         18846.2520        17089.6660
  4048    40.4741    19272(139)         18967.3594        17085.0117
  4049    40.4841    19364(139)         19156.3301        17080.3535
  4050    40.4941    19504(140)         19490.4473        17075.6992
  4051    40.5041    19876(141)         20034.4941        17071.0430
  4052    40.5141    20664(144)         20815.1328        17066.3867
  4053    40.5241    21768(148)         21811.7266        17061.7305
  4054    40.5341    23176(152)         22989.4141        17057.0723
  4055    40.5441    24964(158)         24359.0762        17052.4180
  4056    40.5541    27220(165)         25983.0273        17047.7598
  4057    40.5641    29384(171)         27927.7852        17043.1055
  4058    40.5741    32516(180)         30250.7734        17038.4473
  4059    40.5841    34724(186)         32860.0313        17033.7930
  4060    40.5941    36228(190)         35296.9453        17029.1367
  4061    40.6041    35596(189)         36726.1289        17024.4805
  4062    40.6141    34048(185)         36389.3203        17019.8242
  4063    40.6241    32672(181)         34365.6641        17015.1680
  4064    40.6341    32228(180)         31536.0625        17010.5117
  4065    40.6441    31588(178)         28925.1563        17005.8555
  4066    40.6541    30804(176)         27350.6836        17001.1992
  4067    40.6641    30324(174)         27428.1484        16996.5430
  4068    40.6741    32124(179)         29558.4922        16991.8867
  4069    40.6841    36276(190)         33847.3203        16987.2305
  4070    40.6941    43288(208)         39912.0977        16982.5742
  4071    40.7041    50108(224)         46688.5625        16977.9180
  4072    40.7141    54576(234)         52398.0195        16973.2617
  4073    40.7241    53512(231)         54933.6992        16968.6055
  4074    40.7341    49196(222)         53137.4922        16963.9492
  4075    40.7441    43008(207)         47753.2852        16959.2930
  4076    40.7541    37720(194)         40674.6953        16954.6387
  4077    40.7641    32844(181)         33704.2813        16949.9805
  4078    40.7741    28624(169)         27968.0352        16945.3262
  4079    40.7841    24760(157)         23858.8047        16940.6680
  4080    40.7941    22152(149)         21237.5938        16936.0137
  4081    40.8041    20280(142)         19711.2754        16931.3555
  4082    40.8141    19360(139)         18874.0254        16926.6992
  4083    40.8241    18724(137)         18418.7188        16922.0430
  4084    40.8341    18452(136)         18159.1914        16917.3867
  4085    40.8441    18048(134)         17999.3359        16912.7324
  4086    40.8541    17944(134)         17897.3340        16908.0742
  4087    40.8641    17728(133)         17839.6758        16903.4199
  4088    40.8741    17708(133)         17826.3281        16898.7617
  4089    40.8841    17672(133)         17864.4336        16894.1074
  4090    40.8941    17780(133)         17964.7402        16889.4492
  4091    40.9041    17852(134)         18141.6738        16884.7949
  4092    40.9141    18004(134)         18413.5234        16880.1387
  4093    40.9241    18196(135)         18799.5957        16875.4824
  4094    40.9341    18844(137)         19314.8945        16870.8262
  4095    40.9441    19532(140)         19962.6016        16866.1699
  4096    40.9541    20404(143)         20697.0859        16861.5137
  4097    40.9641    20632(144)         21386.1914        16856.8555
  4098    40.9741    20652(144)         21808.6035        16852.2012
  4099    40.9841    20116(142)         21758.0391        16847.5430
  4100    40.9941    19892(141)         21230.7773        16842.8887
  4101    41.0041    19484(140)         20414.6309        16838.2324
  4102    41.0141    19304(139)         19545.6211        16833.5762
  4103    41.0241    18888(137)         18784.5898        16828.9199
  4104    41.0341    18668(137)         18206.2734        16824.2637
  4105    41.0441    17956(134)         17817.0762        16819.6074
  4106    41.0541    18056(134)         17580.6094        16814.9512
  4107    41.0641    17780(133)         17448.5234        16810.2949
  4108    41.0741    17956(134)         17379.2754        16805.6387
  4109    41.0841    17704(133)         17345.3633        16800.9824
  4110    41.0941    17772(133)         17331.9316        16796.3262
  4111    41.1041    17376(132)         17332.7988        16791.6699
  4112    41.1141    17516(132)         17356.5254        16796.5645
  4113    41.1241    17416(132)         17396.4219        16801.4590
  4114    41.1341    17664(133)         17459.3262        16806.3535
  4115    41.1441    17488(132)         17556.9648        16811.2500
  4116    41.1541    17864(134)         17706.0391        16816.1426
  4117    41.1641    18004(134)         17928.6094        16821.0371
  4118    41.1741    18448(136)         18253.6328        16825.9336
  4119    41.1841    18888(137)         18725.8223        16830.8281
  4120    41.1941    19780(141)         19429.3887        16835.7227
  4121    41.2041    20592(143)         20495.8203        16840.6172
  4122    41.2141    22216(149)         22133.3516        16845.5137
  4123    41.2241    24172(155)         24578.8672        16850.4063
  4124    41.2341    28196(168)         27967.6914        16855.3027
  4125    41.2441    32844(181)         32111.5625        16860.1973
  4126    41.2541    38256(196)         36357.7891        16865.0898
  4127    41.2641    41148(203)         39589.7461        16869.9863
  4128    41.2741    41600(204)         40569.0195        16874.8809
  4129    41.2841    38988(197)         38803.7109        16879.7773
  4130    41.2941    35360(188)         35033.1406        16884.6699
  4131    41.3041    30748(175)         30528.4297        16889.5664
  4132    41.3141    26548(163)         26330.9883        16894.4609
  4133    41.3241    22820(151)         23011.5313        16899.3555
  4134    41.3341    20552(143)         20716.7500        16904.2500
  4135    41.3441    19236(139)         19300.8848        16909.1445
  4136    41.3541    18460(136)         18505.1484        16914.0391
  4137    41.3641    18176(135)         18086.2930        16918.9336
  4138    41.3741    18020(134)         17871.3320        16923.8301
  4139    41.3841    17832(134)         17759.2520        16928.7246
  4140    41.3941    17840(134)         17698.7637        16933.6191
  4141    41.4041    17516(132)         17661.0430        16938.5137
  4142    41.4141    17532(132)         17637.8652        16943.4082
  4143    41.4241    17492(132)         17632.1738        16948.3027
  4144    41.4341    17512(132)         17626.7480        16953.1973
  4145    41.4441    17460(132)         17640.5801        16958.0938
  4146    41.4541    17636(133)         17682.3301        16962.9863
  4147    41.4641    17736(133)         17756.0117        16967.8828
  4148    41.4741    17880(134)         17853.8574        16972.7773
  4149    41.4841    17968(134)         17959.1230        16977.6738
  4150    41.4941    18072(134)         18044.5977        16982.5664
  4151    41.5041    17952(134)         18084.2578        16987.4609
  4152    41.5141    17980(134)         18074.6289        16992.3574
  4153    41.5241    17928(134)         18039.6660        16997.2500
  4154    41.5341    18032(134)         18015.6016        17002.1465
  4155    41.5441    17948(134)         18037.3984        17007.0410
  4156    41.5541    18128(135)         18133.5254        17011.9355
  4157    41.5641    18288(135)         18322.9922        17016.8301
  4158    41.5741    18788(137)         18616.3945        17021.7266
  4159    41.5841    18788(137)         19013.2637        17026.6211
  4160    41.5941    19556(140)         19515.8633        17031.5137
  4161    41.6041    20136(142)         20150.7695        17036.4102
  4162    41.6141    21168(145)         21015.1797        17041.3047
  4163    41.6241    22188(149)         22304.1914        17046.1992
  4164    41.6341    24328(156)         24287.8008        17051.0938
  4165    41.6441    26768(164)         27219.1367        17055.9902
  4166    41.6541    30888(176)         31166.7988        17060.8828
  4167    41.6641    34484(186)         35889.9141        17065.7773
  4168    41.6741    37616(194)         40721.5000        17070.6738
  4169    41.6841    39944(200)         44704.8398        17075.5664
  4170    41.6941    41956(205)         47064.8047        17080.4629
  4171    41.7041    42940(207)         47523.2656        17085.3574
  4172    41.7141    43440(208)         46167.8281        17090.2539
  4173    41.7241    41820(204)         43246.7813        17095.1465
  4174    41.7341    38496(196)         39191.8633        17100.0430
  4175    41.7441    34052(185)         34771.6563        17104.9375
  4176    41.7541    29716(172)         30770.2129        17109.8301
  4177    41.7641    26132(162)         27621.8828        17114.7266
  4178    41.7741    24600(157)         25383.7031        17119.6211
  4179    41.7841    23572(154)         23829.3047        17124.5156
  4180    41.7941    23488(153)         22652.6035        17129.4102
  4181    41.8041    22600(150)         21632.2656        17134.3066
  4182    41.8141    21560(147)         20709.6953        17139.2012
  4183    41.8241    20096(142)         19904.3223        17144.0957
  4184    41.8341    19336(139)         19248.2207        17148.9902
  4185    41.8441    18564(136)         18757.4199        17153.8848
  4186    41.8541    18288(135)         18427.7500        17158.7793
  4187    41.8641    17948(134)         18225.6699        17163.6738
  4188    41.8741    18060(134)         18123.8828        17168.5703
  4189    41.8841    17868(134)         18096.2852        17173.4629
  4190    41.8941    17936(134)         18123.3496        17178.3594
  4191    41.9041    18032(134)         18189.1055        17183.2539
  4192    41.9141    18076(134)         18276.9766        17188.1484
  4193    41.9241    18188(135)         18368.6211        17193.0430
  4194    41.9341    18312(135)         18449.6094        17197.9375
  4195    41.9441    18416(136)         18521.0938        17202.8340
  4196    41.9541    18680(137)         18606.0938        17207.7266
  4197    41.9641    18912(138)         18754.1543        17212.6230
  4198    41.9741    19696(140)         19043.3340        17217.5176
  4199    41.9841    20328(143)         19586.5527        17222.4121
  4200    41.9941    21768(148)         20535.0918        17227.3066
  4201    42.0041    23316(153)         22064.5625        17232.2012
  4202    42.0141    25560(160)         24318.5156        17237.0977
  4203    42.0241    28432(169)         27309.9336        17241.9902
  4204    42.0341    31524(178)         30803.3867        17246.8867
  4205    42.0441    34016(184)         34198.6563        17251.7813
  4206    42.0541    36404(191)         36568.7344        17256.6758
  4207    42.0641    37116(193)         36984.3594        17261.5703
  4208    42.0741    36348(191)         35224.7500        17266.4668
  4209    42.0841    33504(183)         32002.8555        17271.3594
  4210    42.0941    29244(171)         28326.6523        17276.2539
  4211    42.1041    24748(157)         24971.4785        17281.1504
  4212    42.1141    21740(147)         22353.2734        17286.0430
  4213    42.1241    19848(141)         20558.1367        17290.9395
  4214    42.1341    19108(138)         19461.5938        17295.8340
  4215    42.1441    18408(136)         18858.2402        17300.7305
  4216    42.1541    18464(136)         18562.7090        17305.6230
  4217    42.1641    18244(135)         18453.2168        17310.5176
  4218    42.1741    18516(136)         18468.8477        17304.5059
  4219    42.1841    18460(136)         18633.3379        17298.4961
  4220    42.1941    19072(138)         19012.0430        17292.4844
  4221    42.2041    19760(141)         19701.4121        17286.4746
  4222    42.2141    21084(145)         20791.0352        17280.4609
  4223    42.2241    22988(152)         22296.7500        17274.4512
  4224    42.2341    25196(159)         24101.5586        17268.4395
  4225    42.2441    26536(163)         25903.7656        17262.4297
  4226    42.2541    27492(166)         27238.8828        17256.4199
  4227    42.2641    27148(165)         27619.5820        17250.4082
  4228    42.2741    26384(162)         26882.1602        17244.3984
  4229    42.2841    25064(158)         25345.3867        17238.3867
  4230    42.2941    24272(156)         23521.0625        17232.3750
  4231    42.3041    22820(151)         21819.8477        17226.3633
  4232    42.3141    21432(146)         20472.6543        17220.3535
  4233    42.3241    20316(143)         19539.8691        17214.3418
  4234    42.3341    19560(140)         18969.3184        17208.3320
  4235    42.3441    19048(138)         18682.3887        17202.3223
  4236    42.3541    18812(137)         18588.5176        17196.3105
  4237    42.3641    18420(136)         18628.5938        17190.3008
  4238    42.3741    18664(137)         18764.7852        17184.2871
  4239    42.3841    18620(136)         18978.9629        17178.2773
  4240    42.3941    18920(138)         19272.9336        17172.2656
  4241    42.4041    19180(138)         19682.4980        17166.2559
  4242    42.4141    20076(142)         20329.5762        17160.2461
  4243    42.4241    20592(143)         21463.7715        17154.2344
  4244    42.4341    22300(149)         23454.7852        17148.2246
  4245    42.4441    24680(157)         26709.7617        17142.2129
  4246    42.4541    28812(170)         31500.9063        17136.2031
  4247    42.4641    34724(186)         37728.9063        17130.1895
  4248    42.4741    43360(208)         44733.1875        17124.1797
  4249    42.4841    51404(227)         51233.8945        17118.1680
  4250    42.4941    58948(243)         55462.9063        17112.1582
  4251    42.5041    60736(246)         55879.1094        17106.1484
  4252    42.5141    56388(237)         52381.8047        17100.1367
  4253    42.5241    48096(219)         46405.5391        17094.1270
  4254    42.5341    38984(197)         39672.1172        17088.1152
  4255    42.5441    31376(177)         33423.2383        17082.1055
  4256    42.5541    26268(162)         28324.8203        17076.0918
  4257    42.5641    23476(153)         24589.4258        17070.0820
  4258    42.5741    21920(148)         22090.1680        17064.0703
  4259    42.5841    20588(143)         20550.1230        17058.0605
  4260    42.5941    19988(141)         19687.2578        17052.0508
  4261    42.6041    19468(140)         19287.5566        17046.0391
  4262    42.6141    19656(140)         19205.0898        17040.0293
  4263    42.6241    19664(140)         19333.6973        17034.0176
  4264    42.6341    20000(141)         19577.7832        17028.0078
  4265    42.6441    20372(143)         19832.6211        17021.9941
  4266    42.6541    20760(144)         19984.6621        17015.9844
  4267    42.6641    20524(143)         19945.3516        17009.9746
  4268    42.6741    20232(142)         19718.7676        17003.9629
  4269    42.6841    19812(141)         19386.9004        16997.9531
  4270    42.6941    19556(140)         19044.4395        16991.9414
  4271    42.7041    19376(139)         18758.2949        16985.9316
  4272    42.7141    19116(138)         18556.0195        16979.9199
  4273    42.7241    18800(137)         18447.8203        16973.9102
  4274    42.7341    19088(138)         18440.1230        16967.8965
  4275    42.7441    19204(139)         18549.3203        16961.8867
  4276    42.7541    19584(140)         18830.9551        16955.8770
  4277    42.7641    19808(141)         19369.2539        16949.8652
  4278    42.7741    20836(144)         20317.1406        16943.8555
  4279    42.7841    21988(148)         21881.3691        16937.8438
  4280    42.7941    24100(155)         24289.0078        16931.8340
  4281    42.8041    26888(164)         27708.7832        16925.8223
  4282    42.8141    30848(176)         32091.0391        16919.8125
  4283    42.8241    36156(190)         37068.7930        16913.7988
  4284    42.8341    42860(207)         41841.1914        16907.7891
  4285    42.8441    47724(218)         45206.1797        16901.7793
  4286    42.8541    50464(225)         45983.6875        16895.7676
  4287    42.8641    48400(220)         43945.1758        16889.7578
  4288    42.8741    42656(207)         40135.0117        16883.7461
  4289    42.8841    35676(189)         36064.9453        16877.7363
  4290    42.8941    31428(177)         32926.2969        16871.7246
  4291    42.9041    29396(171)         31309.0820        16865.7148
  4292    42.9141    30200(174)         31147.1328        16859.7031
  4293    42.9241    31720(178)         31823.6953        16853.6914
  4294    42.9341    33144(182)         32396.6348        16847.6816
  4295    42.9441    33012(182)         31998.9609        16841.6699
  4296    42.9541    31240(177)         30369.9688        16835.6602
  4297    42.9641    27804(167)         27919.1914        16829.6484
  4298    42.9741    24908(158)         25266.2422        16823.6387
  4299    42.9841    22088(149)         22889.7598        16817.6270
  4300    42.9941    20252(142)         21042.2363        16811.6152
  4301    43.0041    19200(139)         19763.8984        16805.6055
  4302    43.0141    18840(137)         18963.9414        16799.5938
  4303    43.0241    18388(136)         18514.5469        16793.5840
  4304    43.0341    18348(135)         18307.5469        16787.5723
  4305    43.0441    18236(135)         18270.0977        16781.5625
  4306    43.0541    18532(136)         18353.2129        16775.5508
  4307    43.0641    18660(137)         18515.5820        16769.5410
  4308    43.0741    18980(138)         18713.7246        16763.5273
  4309    43.0841    18924(138)         18903.7852        16757.5176
  4310    43.0941    19376(139)         19066.2148        16751.5078
  4311    43.1041    19276(139)         19238.1367        16745.4961
  4312    43.1141    19584(140)         19496.3242        16739.4863
  4313    43.1241    19700(140)         19896.9863        16733.4746
  4314    43.1341    20240(142)         20417.1875        16727.4648
  4315    43.1441    20436(143)         20967.1133        16721.4531
  4316    43.1541    20672(144)         21370.2012        16715.4434
  4317    43.1641    20800(144)         21465.8320        16709.4336
  4318    43.1741    20960(145)         21230.6719        16703.4199
  4319    43.1841    20532(143)         20796.7891        16697.4102
  4320    43.1941    20172(142)         20327.9277        16691.3984
  4321    43.2041    19464(140)         19927.0098        16685.3887
  4322    43.2141    19476(140)         19616.6934        16679.3770
  4323    43.2241    19100(138)         19373.8887        16673.3672
  4324    43.2341    19004(138)         19192.9336        16667.3555
  4325    43.2441    18852(137)         19109.1582        16661.3457
  4326    43.2541    18900(137)         19171.0273        16655.3359
  4327    43.2641    18720(137)         19415.9277        16649.3223
  4328    43.2741    19192(139)         19859.5430        16643.3125
  4329    43.2841    20080(142)         20483.5137        16637.3008
  4330    43.2941    21140(145)         21206.5195        16631.2910
  4331    43.3041    22004(148)         21869.0430        16625.2793
  4332    43.3141    22644(150)         22261.3789        16619.2695
  4333    43.3241    22364(150)         22215.3828        16613.2578
  4334    43.3341    21980(148)         21707.2852        16607.2480
  4335    43.3441    20896(145)         20879.0801        16601.2383
  4336    43.3541    20292(142)         19954.4121        16595.2246
  4337    43.3641    19256(139)         19115.3301        16589.2148
  4338    43.3741    18740(137)         18472.3633        16583.2031
  4339    43.3841    18180(135)         18071.9570        16577.1934
  4340    43.3941    18300(135)         17920.4316        16571.1816
  4341    43.4041    18344(135)         18013.3457        16565.1719
  4342    43.4141    18668(137)         18351.9570        16559.1621
  4343    43.4241    19076(138)         18942.5703        16553.1504
  4344    43.4341    19716(140)         19779.1172        16547.1406
  4345    43.4441    20528(143)         20821.1563        16541.1270
  4346    43.4541    21808(148)         21971.7520        16535.1172
  4347    43.4641    23248(152)         23094.3223        16529.1055
  4348    43.4741    24248(156)         24085.6543        16523.0957
  4349    43.4841    24864(158)         24935.0137        16517.0840
  4350    43.4941    25596(160)         25689.7090        16511.0742
  4351    43.5041    25644(160)         26468.6719        16505.0645
  4352    43.5141    26628(163)         27474.1875        16499.0527
  4353    43.5241    27884(167)         28828.5078        16493.0430
  4354    43.5341    30192(174)         30383.8418        16487.0293
  4355    43.5441    31988(179)         31670.9883        16481.0195
  4356    43.5541    32988(182)         32040.1289        16475.0078
  4357    43.5641    31396(177)         31069.5625        16468.9980
  4358    43.5741    28912(170)         28943.7539        16462.9863
  4359    43.5841    25620(160)         26250.8086        16456.9766
  4360    43.5941    22952(151)         23597.1758        16450.9668
  4361    43.6041    20820(144)         21361.0391        16444.9551
  4362    43.6141    19472(140)         19712.0449        16438.9434
  4363    43.6241    18340(135)         18637.4844        16432.9316
  4364    43.6341    18040(134)         18027.5742        16426.9219
  4365    43.6441    17720(133)         17741.1953        16420.9102
  4366    43.6541    17764(133)         17660.4609        16415.3984
  4367    43.6641    17808(133)         17702.0566        16409.8848
  4368    43.6741    17960(134)         17819.6309        16404.3691
  4369    43.6841    17972(134)         17993.3906        16398.8574
  4370    43.6941    18496(136)         18243.9238        16393.3418
  4371    43.7041    18548(136)         18622.3398        16387.8301
  4372    43.7141    19236(139)         19181.3184        16382.3154
  4373    43.7241    19896(141)         19933.6758        16376.8027
  4374    43.7341    21088(145)         20833.4316        16371.2881
  4375    43.7441    22120(149)         21764.7598        16365.7754
  4376    43.7541    23312(153)         22562.4004        16360.2627
  4377    43.7641    23744(154)         23091.3438        16354.7471
  4378    43.7741    24024(155)         23360.7246        16349.2344
  4379    43.7841    23788(154)         23497.7266        16343.7197
  4380    43.7941    23668(154)         23583.0859        16338.2070
  4381    43.8041    23372(153)         23560.9219        16332.6924
  4382    43.8141    23040(152)         23270.6250        16327.1797
  4383    43.8241    22024(148)         22603.7500        16321.6650
  4384    43.8341    21412(146)         21645.1113        16316.1523
  4385    43.8441    20480(143)         20600.4844        16310.6396
  4386    43.8541    19920(141)         19659.2324        16305.1250
  4387    43.8641    19128(138)         18937.6953        16299.6123
  4388    43.8741    18988(138)         18467.6270        16294.0977
  4389    43.8841    18396(136)         18207.4746        16288.5850
  4390    43.8941    18100(135)         18071.9141        16283.0703
  4391    43.9041    17928(134)         17963.1719        16277.5576
  4392    43.9141    17852(134)         17815.2832        16272.0449
  4393    43.9241    17572(133)         17621.2734        16266.5303
  4394    43.9341    17256(131)         17417.4727        16261.0176
  4395    43.9441    17148(131)         17242.7461        16255.5029
  4396    43.9541    17064(131)         17155.5762        16249.9902
  4397    43.9641    16912(130)         17187.0313        16244.4746
  4398    43.9741    17164(131)         17370.5957        16238.9619
  4399    43.9841    17204(131)         17728.7422        16233.4473
  4400    43.9941    17852(134)         18257.2090        16227.9346
  4401    44.0041    18508(136)         18907.7559        16222.4219
  4402    44.0141    19288(139)         19575.4902        16216.9072
  4403    44.0241    19872(141)         20101.8848        16211.3945
  4404    44.0341    20416(143)         20317.1270        16205.8799
  4405    44.0441    20116(142)         20147.2246        16200.3672
  4406    44.0541    19792(141)         19649.0469        16194.8525
  4407    44.0641    19140(138)         18976.5313        16189.3398
  4408    44.0741    18420(136)         18284.5645        16183.8252
  4409    44.0841    17588(133)         17681.1230        16178.3125
  4410    44.0941    17280(131)         17217.5156        16172.7998
  4411    44.1041    16768(129)         16899.5313        16167.2852
  4412    44.1141    16708(129)         16704.9063        16161.7725
  4413    44.1241    16620(129)         16605.2793        16156.2578
  4414    44.1341    16680(129)         16580.4355        16150.7451
  4415    44.1441    16524(129)         16625.7559        16145.2305
  4416    44.1541    16684(129)         16752.9688        16139.7178
  4417    44.1641    16684(129)         16985.0938        16134.2051
  4418    44.1741    17136(131)         17347.1035        16128.6895
  4419    44.1841    17756(133)         17843.8262        16123.1777
  4420    44.1941    18548(136)         18452.8223        16117.6621
  4421    44.2041    19360(139)         19100.9160        16112.1494
  4422    44.2141    20212(142)         19670.7500        16106.6348
  4423    44.2241    20356(143)         20032.0879        16101.1221
  4424    44.2341    20728(144)         20096.3613        16095.6074
  4425    44.2441    20276(142)         19841.9141        16090.0947
  4426    44.2541    19848(141)         19334.3574        16084.5820
  4427    44.2641    19096(138)         18712.4453        16079.0674
  4428    44.2741    18576(136)         18112.2617        16073.5547
  4429    44.2841    17904(134)         17618.1133        16068.0400
  4430    44.2941    17584(133)         17266.5625        16062.5273
  4431    44.3041    17308(132)         17053.1699        16057.0127
  4432    44.3141    16996(130)         16945.5723        16051.5000
  4433    44.3241    17104(131)         16897.0156        16045.9854
  4434    44.3341    17164(131)         16864.2109        16040.4727
  4435    44.3441    16936(130)         16825.0215        16034.9600
  4436    44.3541    16980(130)         16772.8965        16029.4453
  4437    44.3641    16852(130)         16720.4375        16023.9326
  4438    44.3741    16864(130)         16672.9043        16018.4180
  4439    44.3841    16648(129)         16625.2500        16012.9053
  4440    44.3941    16644(129)         16566.8789        16007.3896
  4441    44.4041    16360(128)         16493.1680        16001.8770
  4442    44.4141    16272(128)         16408.4844        15996.3643
  4443    44.4241    16272(128)         16324.8955        15990.8496
  4444    44.4341    16332(128)         16249.9629        15985.3369
  4445    44.4441    16200(127)         16190.2061        15979.8223
  4446    44.4541    16364(128)         16145.9014        15974.3096
  4447    44.4641    16024(127)         16115.5625        15968.7949
  4448    44.4741    16096(127)         16094.9795        15963.2822
  4449    44.4841    16032(127)         16081.3105        15957.7676
  4450    44.4941    16140(127)         16072.7773        15952.2549
  4451    44.5041    15996(126)         16066.9287        15946.7422
  4452    44.5141    16092(127)         16069.2715        15946.2031
  4453    44.5241    16012(127)         16075.8584        15945.6650
  4454    44.5341    16068(127)         16088.6660        15945.1260
  4455    44.5441    16136(127)         16110.2422        15944.5869
  4456    44.5541    16204(127)         16142.5957        15944.0488
  4457    44.5641    16332(128)         16185.9932        15943.5098
  4458    44.5741    16424(128)         16236.7559        15942.9707
  4459    44.5841    16320(128)         16289.3281        15942.4326
  4460    44.5941    16512(128)         16332.0283        15941.8936
  4461    44.6041    16452(128)         16351.7275        15941.3545
  4462    44.6141    16592(129)         16345.1709        15940.8164
  4463    44.6241    16324(128)         16316.5527        15940.2773
  4464    44.6341    16540(129)         16278.1855        15939.7383
  4465    44.6441    16244(127)         16241.8438        15939.2002
  4466    44.6541    16332(128)         16216.1025        15938.6611
  4467    44.6641    16340(128)         16202.4844        15938.1221
  4468    44.6741    16372(128)         16212.9238        15937.5840
  4469    44.6841    16448(128)         16249.0264        15937.0449
  4470    44.6941    16512(128)         16320.9082        15936.5059
  4471    44.7041    16580(129)         16445.2949        15935.9678
  4472    44.7141    16684(129)         16646.2754        15935.4287
  4473    44.7241    17136(131)         16953.3184        15934.8896
  4474    44.7341    17596(133)         17397.9922        15934.3516
  4475    44.7441    17932(134)         18005.5117        15933.8125
  4476    44.7541    18684(137)         18782.5605        15933.2744
  4477    44.7641    19076(138)         19701.2090        15932.7354
  4478    44.7741    19820(141)         20695.4277        15932.1963
  4479    44.7841    20460(143)         21673.2695        15931.6572
  4480    44.7941    21256(146)         22499.3984        15931.1191
  4481    44.8041    21996(148)         22989.4180        15930.5801
  4482    44.8141    22628(150)         22993.6758        15930.0420
  4483    44.8241    22456(150)         22543.5059        15929.5029
  4484    44.8341    21972(148)         21838.8359        15928.9639
  4485    44.8441    20872(144)         21096.5859        15928.4258
  4486    44.8541    20008(141)         20466.8652        15927.8867
  4487    44.8641    19244(139)         20028.5781        15927.3477
  4488    44.8741    19104(138)         19781.7793        15926.8086
  4489    44.8841    19080(138)         19648.0996        15926.2705
  4490    44.8941    19284(139)         19492.5918        15925.7314
  4491    44.9041    18920(138)         19205.5156        15925.1934
  4492    44.9141    18640(137)         18779.9844        15924.6543
  4493    44.9241    18008(134)         18301.4082        15924.1152
  4494    44.9341    17744(133)         17878.1738        15923.5771
  4495    44.9441    17316(132)         17602.0723        15923.0381
  4496    44.9541    17272(131)         17523.6074        15922.4990
  4497    44.9641    17220(131)         17648.1836        15921.9609
  4498    44.9741    17256(131)         17930.9922        15921.4219
  4499    44.9841    17676(133)         18284.6172        15920.8828
  4500    44.9941    17948(134)         18587.5605        15920.3447
  4501    45.0041    17996(134)         18713.2539        15919.8057
  4502    45.0141    18156(135)         18590.8516        15919.2666
  4503    45.0241    17936(134)         18254.9063        15918.7285
  4504    45.0341    17500(132)         17808.0977        15918.1895
  4505    45.0441    17004(130)         17352.6621        15917.6504
  4506    45.0541    16644(129)         16958.1543        15917.1123
  4507    45.0641    16344(128)         16657.8008        15916.5732
  4508    45.0741    16428(128)         16454.0527        15916.0342
  4509    45.0841    16256(127)         16327.5371        15915.4961
  4510    45.0941    16300(128)         16256.2393        15914.9570
  4511    45.1041    16268(128)         16219.7441        15914.4180
  4512    45.1141    16392(128)         16203.9492        15913.8799
  4513    45.1241    16160(127)         16200.9531        15913.3408
  4514    45.1341    16280(128)         16208.7461        15913.6768
  4515    45.1441    16380(128)         16228.8525        15914.0117
  4516    45.1541    16492(128)         16263.7900        15914.3477
  4517    45.1641    16336(128)         16324.6182        15914.6826
  4518    45.1741    16508(128)         16425.7910        15915.0186
  4519    45.1841    16508(128)         16582.3926        15915.3545
  4520    45.1941    16988(130)         16806.5293        15915.6895
  4521    45.2041    17208(131)         17099.4316        15916.0254
  4522    45.2141    17640(133)         17446.6094        15916.3613
  4523    45.2241    17956(134)         17816.9453        15916.6963
  4524    45.2341    18448(136)         18170.6680        15917.0322
  4525    45.2441    18496(136)         18481.9883        15917.3682
  4526    45.2541    18764(137)         18778.7871        15917.7031
  4527    45.2641    19072(138)         19149.7500        15918.0391
  4528    45.2741    19700(140)         19689.0137        15918.3740
  4529    45.2841    20524(143)         20436.7813        15918.7100
  4530    45.2941    21708(147)         21348.9805        15919.0459
  4531    45.3041    23100(152)         22298.9844        15919.3809
  4532    45.3141    24328(156)         23114.1250        15919.7168
  4533    45.3241    24828(158)         23687.8516        15920.0527
  4534    45.3341    24664(157)         24076.1563        15920.3877
  4535    45.3441    24268(156)         24425.4063        15920.7236
  4536    45.3541    24892(158)         24823.2383        15921.0596
  4537    45.3641    25836(161)         25243.4238        15921.3945
  4538    45.3741    27560(166)         25571.7676        15921.7305
  4539    45.3841    28632(169)         25616.5391        15922.0654
  4540    45.3941    28920(170)         25195.9609        15922.4014
  4541    45.4041    27756(167)         24322.7676        15922.7373
  4542    45.4141    25892(161)         23264.1426        15923.0723
  4543    45.4241    23736(154)         22390.8320        15923.4082
  4544    45.4341    22260(149)         22026.0762        15923.7441
  4545    45.4441    21724(147)         22364.0332        15924.0791
  4546    45.4541    22136(149)         23420.9492        15924.4150
  4547    45.4641    23036(152)         25011.4160        15924.7510
  4548    45.4741    24564(157)         26756.3730        15925.0859
  4549    45.4841    26040(161)         28140.4902        15925.4219
  4550    45.4941    27484(166)         28665.2305        15925.7578
  4551    45.5041    27724(167)         28142.7441        15926.0928
  4552    45.5141    26672(163)         26817.5547        15926.4287
  4553    45.5241    24552(157)         25129.9180        15926.7637
  4554    45.5341    22632(150)         23454.2500        15927.0996
  4555    45.5441    21096(145)         22015.9004        15927.4355
  4556    45.5541    20700(144)         20902.3281        15927.7705
  4557    45.5641    20264(142)         20127.1055        15928.1064
  4558    45.5741    20064(142)         19665.4785        15928.4424
  4559    45.5841    20044(142)         19480.6348        15928.7773
  4560    45.5941    20280(142)         19512.5723        15929.1133
  4561    45.6041    20532(143)         19682.2500        15929.4492
  4562    45.6141    20772(144)         19888.3340        15929.7842
  4563    45.6241    20636(144)         20032.0918        15930.1201
  4564    45.6341    20708(144)         20047.4531        15930.4551
  4565    45.6441    20392(143)         19892.6465        15930.7910
  4566    45.6541    20340(143)         19549.7715        15931.1270
  4567    45.6641    19796(141)         19059.1055        15931.4619
  4568    45.6741    19196(139)         18509.9648        15931.7979
  4569    45.6841    18244(135)         17986.8555        15932.1338
  4570    45.6941    17676(133)         17538.2813        15932.4688
  4571    45.7041    17020(130)         17178.6211        15932.8047
  4572    45.7141    16936(130)         16904.1758        15933.1406
  4573    45.7241    16564(129)         16703.3828        15933.4756
  4574    45.7341    16480(128)         16560.6133        15933.8115
  4575    45.7441    16364(128)         16460.2324        15934.1465
  4576    45.7541    16376(128)         16389.2813        15934.4824
  4577    45.7641    16260(128)         16337.4678        15934.8184
  4578    45.7741    16288(128)         16296.8457        15935.1533
  4579    45.7841    16012(127)         16261.8154        15935.4893
  4580    45.7941    16164(127)         16229.0566        15935.8252
  4581    45.8041    16024(127)         16197.7793        15936.1602
  4582    45.8141    16320(128)         16169.0977        15936.4961
  4583    45.8241    16080(127)         16144.3486        15936.8320
  4584    45.8341    16000(126)         16124.3203        15937.1670
  4585    45.8441    15852(126)         16110.4736        15937.5029
  4586    45.8541    15884(126)         16099.4951        15937.8379
  4587    45.8641    15820(126)         16091.9756        15938.1738
  4588    45.8741    16044(127)         16086.9297        15938.5098
  4589    45.8841    15876(126)         16083.7344        15938.8447
  4590    45.8941    15780(126)         16081.8945        15939.1807
  4591    45.9041    15872(126)         16081.6201        15940.3730
  4592    45.9141    15908(126)         16082.6133        15941.5654
  4593    45.9241    15892(126)         16084.9453        15942.7588
  4594    45.9341    16036(127)         16087.6924        15943.9512
  4595    45.9441    15900(126)         16091.4180        15945.1445
  4596    45.9541    16012(127)         16094.7813        15946.3369
  4597    45.9641    15944(126)         16101.2197        15947.5303
  4598    45.9741    16180(127)         16109.8740        15948.7227
  4599    45.9841    16104(127)         16121.9863        15949.9150
  4600    45.9941    16136(127)         16139.2939        15951.1084
  4601    46.0041    16012(127)         16165.5547        15952.3008
  4602    46.0141    16160(127)         16204.4277        15953.4932
  4603    46.0241    16148(127)         16261.2773        15954.6865
  4604    46.0341    16300(128)         16342.5000        15955.8789
  4605    46.0441    16392(128)         16455.8320        15957.0713
  4606    46.0541    16592(129)         16611.8438        15958.2646
  4607    46.0641    16728(129)         16817.8086        15959.4570
  4608    46.0741    17060(131)         17079.7441        15960.6504
  4609    46.0841    17216(131)         17396.5410        15961.8428
  4610    46.0941    17660(133)         17755.2305        15963.0352
  4611    46.1041    17864(134)         18120.9434        15964.2285
  4612    46.1141    18568(136)         18428.9355        15965.4209
  4613    46.1241    18704(137)         18605.2344        15966.6143
  4614    46.1341    19012(138)         18605.1484        15967.8066
  4615    46.1441    18680(137)         18459.9727        15969.0000
  4616    46.1541    18644(137)         18264.2480        15970.1924
  4617    46.1641    18388(136)         18130.9727        15971.3848
  4618    46.1741    18288(135)         18152.2559        15972.5781
  4619    46.1841    18684(137)         18390.0742        15973.7705
  4620    46.1941    19364(139)         18864.5293        15974.9629
  4621    46.2041    20104(142)         19550.5156        15976.1563
  4622    46.2141    21348(146)         20380.5430        15977.3486
  4623    46.2241    21776(148)         21242.2539        15978.5410
  4624    46.2341    22004(148)         21987.3086        15979.7344
  4625    46.2441    21448(146)         22473.5352        15980.9268
  4626    46.2541    21152(145)         22663.7910        15982.1191
  4627    46.2641    20920(145)         22674.3633        15983.3125
  4628    46.2741    21540(147)         22675.5215        15984.5049
  4629    46.2841    22188(149)         22761.1484        15985.6982
  4630    46.2941    22840(151)         22890.7051        15986.8906
  4631    46.3041    22464(150)         22903.9141        15988.0840
  4632    46.3141    21992(148)         22613.1699        15989.2764
  4633    46.3241    20992(145)         21951.3887        15990.4697
  4634    46.3341    20308(143)         21024.3594        15991.6621
  4635    46.3441    19436(139)         20015.1738        15992.8545
  4636    46.3541    18704(137)         19084.5273        15994.0479
  4637    46.3641    18192(135)         18329.7949        15995.2402
  4638    46.3741    17696(133)         17776.2539        15996.4326
  4639    46.3841    17332(132)         17393.8320        15997.6260
  4640    46.3941    17244(131)         17125.1348        15998.8184
  4641    46.4041    16948(130)         16921.9434        16000.0107
  4642    46.4141    16840(130)         16757.1914        16001.2041
  4643    46.4241    16596(129)         16619.9688        16002.3965
  4644    46.4341    16412(128)         16514.9961        16003.5889
  4645    46.4441    16224(127)         16429.5508        16004.7822
  4646    46.4541    16264(128)         16368.4131        16005.9746
  4647    46.4641    16096(127)         16327.9629        16007.1680
  4648    46.4741    16220(127)         16302.1426        16008.3604
  4649    46.4841    16292(128)         16288.9902        16009.5537
  4650    46.4941    16252(127)         16283.5049        16010.7461
  4651    46.5041    16084(127)         16283.1875        16011.9385
  4652    46.5141    16288(128)         16283.6689        16010.3604
  4653    46.5241    16168(127)         16287.6582        16008.7832
  4654    46.5341    16364(128)         16294.4912        16007.2061
  4655    46.5441    16288(128)         16302.9873        16005.6279
  4656    46.5541    16372(128)         16316.6143        16004.0508
  4657    46.5641    16220(127)         16334.1094        16002.4736
  4658    46.5741    16388(128)         16356.1533        16000.8955
  4659    46.5841    16412(128)         16383.7334        15999.3184
  4660    46.5941    16648(129)         16418.5059        15997.7412
  4661    46.6041    16584(129)         16463.7520        15996.1631
  4662    46.6141    16788(130)         16525.2383        15994.5859
  4663    46.6241    16728(129)         16616.2266        15993.0078
  4664    46.6341    17148(131)         16762.7109        15991.4307
  4665    46.6441    17216(131)         17013.9004        15989.8535
  4666    46.6541    17660(133)         17449.3496        15988.2764
  4667    46.6641    18216(135)         18197.7285        15986.6992
  4668    46.6741    19504(140)         19409.5898        15985.1211
  4669    46.6841    20972(145)         21232.2070        15983.5439
  4670    46.6941    23556(153)         23746.0469        15981.9658
  4671    46.7041    26968(164)         26876.8711        15980.3887
  4672    46.7141    31308(177)         30335.0000        15978.8105
  4673    46.7241    34944(187)         33581.3281        15977.2334
  4674    46.7341    37736(194)         35918.5781        15975.6563
  4675    46.7441    37724(194)         36708.3359        15974.0781
  4676    46.7541    36304(191)         35689.6445        15972.5010
  4677    46.7641    33044(182)         33166.5938        15970.9238
  4678    46.7741    29656(172)         29841.3086        15969.3467
  4679    46.7841    26416(163)         26429.6406        15967.7686
  4680    46.7941    23924(155)         23448.2773        15966.1914
  4681    46.8041    21860(148)         21162.1094        15964.6133
  4682    46.8141    20348(143)         19624.9883        15963.0361
  4683    46.8241    19328(139)         18744.0957        15961.4580
  4684    46.8341    18672(137)         18356.6191        15959.8809
  4685    46.8441    18300(135)         18286.1172        15958.3037
  4686    46.8541    17980(134)         18371.6211        15956.7266
  4687    46.8641    17804(133)         18474.7988        15955.1484
  4688    46.8741    17656(133)         18488.1309        15953.5713
  4689    46.8841    17540(132)         18358.4570        15951.9941
  4690    46.8941    17432(132)         18104.8223        15950.4160
  4691    46.9041    17292(131)         17791.9043        15948.8389
  4692    46.9141    17148(131)         17486.4648        15947.2617
  4693    46.9241    16980(130)         17237.6914        15945.6836
  4694    46.9341    16936(130)         17075.8027        15944.1064
  4695    46.9441    16848(130)         17018.6680        15942.5283
  4696    46.9541    16948(130)         17085.1504        15940.9512
  4697    46.9641    17016(130)         17304.4492        15939.3740
  4698    46.9741    17340(132)         17714.5508        15937.7969
  4699    46.9841    17728(133)         18343.5313        15936.2188
  4700    46.9941    18624(136)         19182.4414        15934.6416
  4701    47.0041    19832(141)         20163.4492        15933.0645
  4702    47.0141    21140(145)         21147.8770        15931.4863
  4703    47.0241    22196(149)         21934.2500        15929.9092
  4704    47.0341    22728(151)         22314.6953        15928.3311
  4705    47.0441    22160(149)         22190.7402        15926.7539
  4706    47.0541    21592(147)         21656.3477        15925.1768
  4707    47.0641    20208(142)         20919.5781        15923.5986
  4708    47.0741    19392(139)         20188.7324        15922.0215
  4709    47.0841    18740(137)         19592.9512        15920.4443
  4710    47.0941    18564(136)         19170.9297        15918.8672
  4711    47.1041    18284(135)         18877.4785        15917.2891
  4712    47.1141    18756(137)         18625.1973        15915.7119
  4713    47.1241    18656(137)         18347.4219        15914.1338
  4714    47.1341    18480(136)         18039.8105        15912.5566
  4715    47.1441    17796(133)         17741.9199        15910.9785
  4716    47.1541    17508(132)         17502.8242        15909.4014
  4717    47.1641    17172(131)         17360.6289        15907.8242
  4718    47.1741    17168(131)         17334.8281        15906.2471
  4719    47.1841    17304(132)         17424.2500        15904.6699
  4720    47.1941    17692(133)         17610.3047        15903.0918
  4721    47.2041    18260(135)         17866.1680        15901.5146
  4722    47.2141    18876(137)         18170.6406        15899.9365
  4723    47.2241    19248(139)         18505.3613        15898.3594
  4724    47.2341    19860(141)         18853.2637        15896.7813
  4725    47.2441    20036(142)         19195.7734        15895.2041
  4726    47.2541    20400(143)         19535.5469        15893.6270
  4727    47.2641    20440(143)         19900.1230        15892.0488
  4728    47.2741    21740(147)         20308.4785        15890.4717
  4729    47.2841    22132(149)         20739.2949        15888.8945
  4730    47.2941    22564(150)         21124.5078        15887.3174
  4731    47.3041    22792(151)         21383.2090        15885.7393
  4732    47.3141    22796(151)         21479.8477        15884.1621
  4733    47.3241    22220(149)         21429.9063        15882.5840
  4734    47.3341    21908(148)         21253.7891        15881.0068
  4735    47.3441    21080(145)         20948.5938        15879.4297
  4736    47.3541    20444(143)         20500.9863        15877.8516
  4737    47.3641    19604(140)         19923.3027        15876.2744
  4738    47.3741    19168(138)         19276.7422        15874.6973
  4739    47.3841    18568(136)         18654.7578        15873.1191
  4740    47.3941    18276(135)         18140.6719        15871.5420
  4741    47.4041    17912(134)         17786.9375        15869.9648
  4742    47.4141    17744(133)         17607.6895        15868.3877
  4743    47.4241    17476(132)         17579.8379        15866.8096
  4744    47.4341    17716(133)         17653.4316        15865.2324
  4745    47.4441    17360(132)         17755.5352        15863.6543
  4746    47.4541    17576(133)         17811.6973        15862.0771
  4747    47.4641    17320(132)         17773.0820        15860.4990
  4748    47.4741    17336(132)         17641.0020        15858.9219
  4749    47.4841    17308(132)         17455.0801        15857.3447
  4750    47.4941    17264(131)         17267.3633        15855.7676
  4751    47.5041    17216(131)         17119.2754        15854.1904
  4752    47.5141    17440(132)         17042.6367        15852.6123
  4753    47.5241    17384(132)         17067.0879        15851.0352
  4754    47.5341    18036(134)         17238.7949        15849.4570
  4755    47.5441    18336(135)         17623.5215        15847.8799
  4756    47.5541    19116(138)         18348.4473        15846.3018
  4757    47.5641    20060(142)         19575.6152        15844.7246
  4758    47.5741    22068(149)         21495.0156        15843.1475
  4759    47.5841    23820(154)         24248.9961        15841.5693
  4760    47.5941    27216(165)         27845.5391        15839.9922
  4761    47.6041    30688(175)         32063.1387        15838.4150
  4762    47.6141    34824(187)         36391.8164        15836.8379
  4763    47.6241    38840(197)         40071.3828        15835.2598
  4764    47.6341    42524(206)         42218.3555        15833.6826
  4765    47.6441    44060(210)         42169.6445        15832.1045
  4766    47.6541    43160(208)         39931.9922        15830.5273
  4767    47.6641    39060(198)         36216.0703        15828.9502
  4768    47.6741    33416(183)         31958.2695        15827.3721
  4769    47.6841    27592(166)         27931.2383        15825.7949
  4770    47.6941    23392(153)         24597.1758        15824.2178
  4771    47.7041    20788(144)         22118.8457        15822.6406
  4772    47.7141    19616(140)         20420.5801        15821.0625
  4773    47.7241    18980(138)         19308.1445        15819.4854
  4774    47.7341    18568(136)         18576.7168        15817.9072
  4775    47.7441    18028(134)         18082.7012        15816.3301
  4776    47.7541    17808(133)         17744.3379        15814.7529
  4777    47.7641    17572(133)         17524.2324        15813.1748
  4778    47.7741    17484(132)         17402.8945        15811.5977
  4779    47.7841    17504(132)         17355.2402        15810.0195
  4780    47.7941    17688(133)         17348.4453        15808.4424
  4781    47.8041    17748(133)         17339.1211        15806.8652
  4782    47.8141    17800(133)         17288.1426        15805.2881
  4783    47.8241    17580(133)         17179.1777        15803.7100
  4784    47.8341    17512(132)         17023.7129        15802.1328
  4785    47.8441    17080(131)         16849.6113        15800.5557
  4786    47.8541    16796(130)         16688.4258        15798.9775
  4787    47.8641    16580(129)         16569.2949        15797.4004
  4788    47.8741    16492(128)         16512.6738        15795.8223
  4789    47.8841    16232(127)         16537.6230        15794.2451
  4790    47.8941    16440(128)         16656.7578        15792.6680
  4791    47.9041    16484(128)         16873.0430        15791.0898
  4792    47.9141    16732(129)         17178.5117        15789.5127
  4793    47.9241    16864(130)         17542.6074        15787.9355
  4794    47.9341    17416(132)         17910.6680        15786.3584
  4795    47.9441    17692(133)         18213.8984        15784.7803
  4796    47.9541    18104(135)         18368.5371        15783.2031
  4797    47.9641    18156(135)         18324.1660        15781.6250
  4798    47.9741    18132(135)         18092.4473        15780.0479
  4799    47.9841    17440(132)         17738.7793        15778.4697
  4800    47.9941    17072(131)         17344.7227        15776.8926
  4801    48.0041    16444(128)         16976.6387        15775.3154
  4802    48.0141    16288(128)         16675.6152        15773.7383
  4803    48.0241    16028(127)         16458.3477        15772.1611
  4804    48.0341    16140(127)         16322.0938        15770.5830
  4805    48.0441    15972(126)         16253.4316        15769.0059
  4806    48.0541    16052(127)         16235.3125        15767.4277
  4807    48.0641    15860(126)         16250.6240        15765.8506
  4808    48.0741    16040(127)         16220.5029        15697.2441
  4809    48.0841    15888(126)         16202.4727        15628.6631
  4810    48.0941    16120(127)         16257.9033        15625.4932
  4811    48.1041    16176(127)         16324.4951        15622.3232
  4812    48.1141    16368(128)         16411.8496        15619.1533
  4813    48.1241    16376(128)         16529.5840        15615.9824
  4814    48.1341    16616(129)         16679.3555        15612.8135
  4815    48.1441    16704(129)         16849.5527        15609.6426
  4816    48.1541    16896(130)         17017.8359        15606.4736
  4817    48.1641    16884(130)         17157.0215        15603.3037
  4818    48.1741    16964(130)         17254.3379        15600.1328
  4819    48.1841    17000(130)         17337.5859        15596.9639
  4820    48.1941    17188(131)         17482.6172        15593.7930
  4821    48.2041    17628(133)         17796.8789        15590.6230
  4822    48.2141    18356(135)         18395.7559        15587.4531
  4823    48.2241    19224(139)         19375.4043        15584.2832
  4824    48.2341    20948(145)         20770.9141        15581.1123
  4825    48.2441    22480(150)         22529.2031        15577.9434
  4826    48.2541    24652(157)         24469.5781        15574.7734
  4827    48.2641    26252(162)         26284.6934        15571.6025
  4828    48.2741    27772(167)         27587.5703        15568.4336
  4829    48.2841    28336(168)         28047.7773        15565.2627
  4830    48.2941    28400(169)         27539.4570        15562.0938
  4831    48.3041    27032(164)         26197.4219        15558.9229
  4832    48.3141    25492(160)         24354.3242        15555.7529
  4833    48.3241    23008(152)         22390.7715        15552.5820
  4834    48.3341    20680(144)         20612.5742        15549.4131
  4835    48.3441    18924(138)         19205.0215        15546.2432
  4836    48.3541    18000(134)         18244.6602        15543.0732
  4837    48.3641    17420(132)         17730.0352        15539.9033
  4838    48.3741    17356(132)         17612.2090        15536.7324
  4839    48.3841    17568(133)         17819.2383        15533.5635
  4840    48.3941    18152(135)         18259.5410        15530.3926
  4841    48.4041    18604(136)         18822.8164        15527.2227
  4842    48.4141    19420(139)         19375.9941        15524.0537
  4843    48.4241    19736(140)         19764.1914        15520.8828
  4844    48.4341    20056(142)         19854.2559        15517.7139
  4845    48.4441    19596(140)         19601.1406        15514.5430
  4846    48.4541    19096(138)         19079.7168        15511.3730
  4847    48.4641    18104(135)         18423.8457        15508.2021
  4848    48.4741    17536(132)         17760.5918        15505.0332
  4849    48.4841    17028(130)         17177.9922        15501.8623
  4850    48.4941    16792(130)         16720.9668        15498.6934
  4851    48.5041    16540(129)         16394.8730        15495.5234
  4852    48.5141    16300(128)         16182.4404        15492.3525
  4853    48.5241    16292(128)         16053.5977        15489.1836
  4854    48.5341    16328(128)         15979.7363        15486.0127
  4855    48.5441    16128(127)         15939.1406        15482.8428
  4856    48.5541    16344(128)         15918.7168        15479.6729
  4857    48.5641    16240(127)         15910.2734        15476.5029
  4858    48.5741    16340(128)         15911.2695        15473.3320
  4859    48.5841    16168(127)         15919.9258        15470.1631
  4860    48.5941    16124(127)         15936.1885        15466.9932
  4861    48.6041    16224(127)         15960.9531        15463.8232
  4862    48.6141    16360(128)         15996.2510        15460.6533
  4863    48.6241    16360(128)         16045.9150        15457.4824
  4864    48.6341    16632(129)         16117.0313        15454.3135
  4865    48.6441    16564(129)         16222.5215        15451.1426
  4866    48.6541    16848(130)         16385.4063        15447.9727
  4867    48.6641    16952(130)         16645.8516        15444.8037
  4868    48.6741    17680(133)         17072.2012        15441.6328
  4869    48.6841    18040(134)         17766.9766        15438.4639
  4870    48.6941    19044(138)         18870.3457        15435.2930
  4871    48.7041    20168(142)         20539.3672        15432.1230
  4872    48.7141    22064(149)         22907.2930        15428.9521
  4873    48.7241    24508(157)         26012.1914        15425.7832
  4874    48.7341    28828(170)         29728.1133        15422.6123
  4875    48.7441    33920(184)         33693.6758        15419.4434
  4876    48.7541    38988(197)         37305.0000        15416.2734
  4877    48.7641    42040(205)         39796.9258        15413.1025
  4878    48.7741    42396(206)         40505.9219        15409.9336
  4879    48.7841    39688(199)         39235.5391        15406.7627
  4880    48.7941    35392(188)         36356.2305        15403.5928
  4881    48.8041    30540(175)         32580.1875        15400.4229
  4882    48.8141    26680(163)         28651.2246        15397.2529
  4883    48.8241    23624(154)         25123.1250        15394.0820
  4884    48.8341    21712(147)         22301.3711        15390.9131
  4885    48.8441    20024(142)         20257.5996        15387.7432
  4886    48.8541    19076(138)         18894.4727        15384.5723
  4887    48.8641    18436(136)         18058.5840        15381.4033
  4888    48.8741    18212(135)         17572.6680        15378.2324
  4889    48.8841    17900(134)         17297.1973        15375.0635
  4890    48.8941    17892(134)         17150.7324        15371.8926
  4891    48.9041    17688(133)         17110.8359        15368.7227
  4892    48.9141    17884(134)         17193.3496        15365.5537
  4893    48.9241    17880(134)         17432.2188        15362.3828
  4894    48.9341    18388(136)         17858.2578        15359.2129
  4895    48.9441    18948(138)         18483.7500        15356.0430
  4896    48.9541    20104(142)         19284.5156        15352.8730
  4897    48.9641    20696(144)         20189.6406        15349.7021
  4898    48.9741    21908(148)         21081.2617        15346.5332
  4899    48.9841    22244(149)         21822.1328        15343.3623
  4900    48.9941    22240(149)         22298.9883        15340.1924
  4901    49.0041    21772(148)         22443.3516        15337.0234
  4902    49.0141    21312(146)         22235.9688        15333.8525
  4903    49.0241    20376(143)         21752.4805        15330.6836
  4904    49.0341    20292(142)         21177.9063        15327.5127
  4905    49.0441    20468(143)         20736.5820        15324.3428
  4906    49.0541    20848(144)         20612.8066        15321.1729
  4907    49.0641    21460(146)         20910.4141        15318.0029
  4908    49.0741    22260(149)         21634.0957        15314.8320
  4909    49.0841    23092(152)         22680.8945        15311.6631
  4910    49.0941    23936(155)         23851.5820        15308.4932
  4911    49.1041    24628(157)         24895.4590        15305.3223
  4912    49.1141    25532(160)         25589.0957        15302.1533
  4913    49.1241    25552(160)         25790.7734        15298.9824
  4914    49.1341    25520(160)         25443.7383        15295.8135
  4915    49.1441    24468(156)         24591.9570        15292.6426
  4916    49.1541    23212(152)         23396.7305        15289.4727
  4917    49.1641    21984(148)         22082.4258        15286.3037
  4918    49.1741    20608(144)         20841.4727        15283.1328
  4919    49.1841    19348(139)         19780.8105        15279.9629
  4920    49.1941    18628(136)         18922.6758        15276.7930
  4921    49.2041    17944(134)         18236.9199        15273.6230
  4922    49.2141    17508(132)         17685.6230        15270.4521
  4923    49.2241    17088(131)         17250.1445        15267.2832
  4924    49.2341    16932(130)         16926.1953        15264.1123
  4925    49.2441    16560(129)         16710.1914        15260.9424
  4926    49.2541    16748(129)         16598.2793        15257.7734
  4927    49.2641    16712(129)         16575.5313        15254.6025
  4928    49.2741    16636(129)         16616.5898        15251.4336
  4929    49.2841    16636(129)         16684.8242        15248.2627
  4930    49.2941    16632(129)         16743.0801        15245.0928
  4931    49.3041    16584(129)         16767.0527        15241.9219
  4932    49.3141    16588(129)         16759.9902        15238.7529
  4933    49.3241    16424(128)         16751.9121        15235.5820
  4934    49.3341    16584(129)         16778.8105        15232.4131
  4935    49.3441    16596(129)         16865.0410        15229.2432
  4936    49.3541    16832(130)         17015.4648        15226.0723
  4937    49.3641    17016(130)         17214.4160        15222.9033
  4938    49.3741    17328(132)         17432.1816        15219.7324
  4939    49.3841    17460(132)         17641.1973        15216.5625
  4940    49.3941    17892(134)         17843.8027        15213.3926
  4941    49.4041    17988(134)         18086.2813        15210.2227
  4942    49.4141    18280(135)         18435.7344        15207.0537
  4943    49.4241    18560(136)         18944.9492        15203.8828
  4944    49.4341    19552(140)         19626.5078        15200.7129
  4945    49.4441    20140(142)         20442.6836        15197.5420
  4946    49.4541    20972(145)         21295.6680        15194.3730
  4947    49.4641    21160(145)         22026.4375        15191.2021
  4948    49.4741    20840(144)         22438.1113        15188.0332
  4949    49.4841    20180(142)         22381.2090        15184.8623
  4950    49.4941    19920(141)         21849.8750        15181.6924
  4951    49.5041    19144(138)         20976.1328        15178.5234
  4952    49.5141    19076(138)         19947.9141        15175.3525
  4953    49.5241    18528(136)         18930.1914        15172.1826
  4954    49.5341    18108(135)         18051.0156        15169.0127
  4955    49.5441    17416(132)         17385.1680        15165.8428
  4956    49.5541    17192(131)         16966.3730        15162.6719
  4957    49.5641    16792(130)         16804.6191        15159.5029
  4958    49.5741    17004(130)         16902.9121        15156.3320
  4959    49.5841    17160(131)         17263.5156        15153.1631
  4960    49.5941    17840(134)         17888.8711        15149.9932
  4961    49.6041    18748(137)         18764.3125        15146.8223
  4962    49.6141    19924(141)         19837.3965        15143.6533
  4963    49.6241    21240(146)         21003.1836        15140.4824
  4964    49.6341    22820(151)         22099.3418        15137.3125
  4965    49.6441    23616(154)         22945.0391        15134.1426
  4966    49.6541    24016(155)         23387.6719        15130.9727
  4967    49.6641    23516(153)         23328.2969        15127.8037
  4968    49.6741    22884(151)         22751.1113        15124.6328
  4969    49.6841    21692(147)         21761.4512        15121.4629
  4970    49.6941    20632(144)         20556.9570        15118.2920
  4971    49.7041    19604(140)         19343.9180        15115.1230
  4972    49.7141    18692(137)         18273.1953        15111.9521
  4973    49.7241    17572(133)         17429.3633        15108.7832
  4974    49.7341    16992(130)         16833.9160        15105.6123
  4975    49.7441    16356(128)         16462.9941        15102.4424
  4976    49.7541    16276(128)         16265.4512        15099.2734
  4977    49.7641    16248(127)         16180.5996        15096.1025
  4978    49.7741    16436(128)         16150.5469        15092.9326
  4979    49.7841    16340(128)         16129.5303        15089.7627
  4980    49.7941    16352(128)         16091.7461        15086.5928
  4981    49.8041    16220(127)         16031.5908        15083.4219
  4982    49.8141    16216(127)         15957.1484        15080.2529
  4983    49.8241    16068(127)         15877.9102        15077.0820
  4984    49.8341    15916(126)         15798.5449        15070.2246
  4985    49.8441    15756(126)         15728.9902        15063.3662
  4986    49.8541    15764(126)         15672.2227        15056.5059
  4987    49.8641    15496(124)         15627.8281        15049.6484
  4988    49.8741    15792(126)         15593.7148        15042.7881
  4989    49.8841    15636(125)         15570.0059        15035.9297
  4990    49.8941    15792(126)         15560.6514        15029.0693
  4991    49.9041    15640(125)         15572.9590        15022.2119
  4992    49.9141    15824(126)         15616.5068        15015.3545
  4993    49.9241    15796(126)         15702.9619        15008.4941
  4994    49.9341    15976(126)         15845.9990        15001.6357
  4995    49.9441    16028(127)         16061.5078        14994.7754
  4996    49.9541    16544(129)         16363.1045        14987.9180
  4997    49.9641    16580(129)         16760.6523        14981.0576
  4998    49.9741    17128(131)         17251.1563        14974.1992
  4999    49.9841    17712(133)         17816.0117        14967.3389
  5000    49.9941    18528(136)         18413.7129        14960.4814
  5001    50.0041    19152(138)         18971.4395        14953.6240
  5002    50.0141    19672(140)         19404.3496        14946.7637
  5003    50.0241    19912(141)         19619.7129        14939.9053
  5004    50.0341    19932(141)         19603.8125        14933.0449
  5005    50.0441    19620(140)         19450.6934        14926.1875
  5006    50.0541    19616(140)         19339.7031        14919.3271
  5007    50.0641    19520(140)         19479.5059        14912.4688
  5008    50.0741    19824(141)         20067.4922        14905.6084
  5009    50.0841    20456(143)         21252.2305        14898.7510
  5010    50.0941    21980(148)         23090.0664        14891.8936
  5011    50.1041    24272(156)         25502.8809        14885.0322
  5012    50.1141    27716(166)         28248.9688        14878.1748
  5013    50.1241    30712(175)         30931.1758        14871.3145
  5014    50.1341    34076(185)         33029.6523        14864.4570
  5015    50.1441    35564(189)         34039.4258        14857.5967
  5016    50.1541    35568(189)         33686.6016        14850.7383
  5017    50.1641    33444(183)         32089.3477        14843.8809
  5018    50.1741    30784(175)         29675.9375        14837.0205
  5019    50.1841    27228(165)         26972.6953        14830.1621
  5020    50.1941    23936(155)         24410.7383        14823.3018
  5021    50.2041    21444(146)         22251.9707        14816.4443
  5022    50.2141    19924(141)         20578.3477        14809.5840
  5023    50.2241    18784(137)         19343.7793        14802.7266
  5024    50.2341    18144(135)         18446.6289        14795.8662
  5025    50.2441    17652(133)         17786.0234        14789.0078
  5026    50.2541    17468(132)         17285.8848        14782.1504
  5027    50.2641    17004(130)         16888.7656        14775.2900
  5028    50.2741    16848(130)         16560.2129        14768.4316
  5029    50.2841    16520(129)         16281.7520        14761.5713
  5030    50.2941    16212(127)         16051.2461        14754.7139
  5031    50.3041    15988(126)         15869.9932        14747.8535
  5032    50.3141    16028(127)         15736.4941        14740.9961
  5033    50.3241    16028(127)         15644.4326        14734.1357
  5034    50.3341    16008(127)         15584.6279        14727.2773
  5035    50.3441    15820(126)         15548.5664        14720.4199
  5036    50.3541    15900(126)         15532.7314        14713.5596
  5037    50.3641    15796(126)         15546.2207        14706.7012
  5038    50.3741    15916(126)         15603.4971        14699.8408
  5039    50.3841    15912(126)         15724.8564        14692.9834
  5040    50.3941    15988(126)         15931.3145        14686.1230
  5041    50.4041    16372(128)         16234.1270        14679.2656
  5042    50.4141    16896(130)         16634.9199        14672.4072
  5043    50.4241    17412(132)         17124.0938        14665.5469
  5044    50.4341    18156(135)         17682.2930        14658.6895
  5045    50.4441    18600(136)         18287.8262        14651.8291
  5046    50.4541    19124(138)         18930.0293        14644.9707
  5047    50.4641    19396(139)         19630.2930        14638.1104
  5048    50.4741    20352(143)         20426.7578        14631.2529
  5049    50.4841    21120(145)         21331.1602        14624.3926
  5050    50.4941    22704(151)         22287.7871        14617.5342
  5051    50.5041    23500(153)         23168.0313        14610.6768
  5052    50.5141    24332(156)         23806.5820        14603.8164
  5053    50.5241    24396(156)         24079.2734        14596.9590
  5054    50.5341    24292(156)         23958.8477        14590.0986
  5055    50.5441    24084(155)         23492.8672        14583.2402
  5056    50.5541    23736(154)         22762.2832        14576.3799
  5057    50.5641    22480(150)         21865.8340        14569.5225
  5058    50.5741    21516(147)         20897.2129        14562.6621
  5059    50.5841    20364(143)         19923.1445        14555.8037
  5060    50.5941    19140(138)         18981.2070        14548.9463
  5061    50.6041    18140(135)         18101.5117        14542.0859
  5062    50.6141    17248(131)         17316.1602        14535.2285
  5063    50.6241    16348(128)         16649.5176        14528.3682
  5064    50.6341    16108(127)         16113.4951        14521.5098
  5065    50.6441    15576(125)         15703.9453        14514.6494
  5066    50.6541    15512(125)         15409.2012        14507.7920
  5067    50.6641    15400(124)         15210.0615        14500.9336
  5068    50.6741    15356(124)         15086.8750        14494.0732
  5069    50.6841    15056(123)         15023.5703        14487.2158
  5070    50.6941    15156(123)         15008.5303        14478.1924
  5071    50.7041    15116(123)         15043.9443        14469.1729
  5072    50.7141    15172(123)         15141.5049        14460.1494
  5073    50.7241    15244(123)         15310.4385        14451.1289
  5074    50.7341    15552(125)         15569.9932        14442.1055
  5075    50.7441    15616(125)         15934.8945        14433.0859
  5076    50.7541    16032(127)         16401.6152        14424.0654
  5077    50.7641    16368(128)         16947.3770        14415.0420
  5078    50.7741    17032(131)         17526.1563        14406.0225
  5079    50.7841    17632(133)         18072.6406        14396.9990
  5080    50.7941    18112(135)         18517.1543        14387.9785
  5081    50.8041    18324(135)         18820.4688        14378.9551
  5082    50.8141    18520(136)         18996.7324        14369.9355
  5083    50.8241    18324(135)         19093.2617        14360.9121
  5084    50.8341    18476(136)         19146.5234        14351.8916
  5085    50.8441    18244(135)         19155.5449        14342.8721
  5086    50.8541    18092(135)         19083.4609        14333.8486
  5087    50.8641    17584(133)         18892.6758        14324.8291
  5088    50.8741    17356(132)         18588.3613        14315.8057
  5089    50.8841    17204(131)         18219.7344        14306.7852
  5090    50.8941    17516(132)         17844.0215        14297.7617
  5091    50.9041    17224(131)         17503.9219        14288.7422
  5092    50.9141    17336(132)         17231.0684        14279.7217
  5093    50.9241    17020(130)         17049.9434        14270.6982
  5094    50.9341    17076(131)         16974.9590        14261.6787
  5095    50.9441    16792(130)         17001.3691        14252.6553
  5096    50.9541    17080(131)         17094.2383        14243.6348
  5097    50.9641    17072(131)         17198.3809        14234.6113
  5098    50.9741    16968(130)         17256.8008        14225.5918
  5099    50.9841    17036(131)         17240.3887        14216.5684
  5100    50.9941    16936(130)         17164.7871        14207.5479
  5101    51.0041    16844(130)         17076.8594        14198.5283
  5102    51.0141    16956(130)         17031.9629        14189.5049
  5103    51.0241    17136(131)         17078.0996        14180.4854
  5104    51.0341    17624(133)         17244.9395        14171.4619
  5105    51.0441    18024(134)         17532.7852        14162.4414
  5106    51.0541    18616(136)         17901.5703        14153.4180
  5107    51.0641    19152(138)         18269.1484        14144.3984
  5108    51.0741    19524(140)         18527.0156        14135.3750
  5109    51.0841    19436(139)         18574.7715        14126.3545
  5110    51.0941    18940(138)         18364.9180        14117.3350
  5111    51.1041    18340(135)         17928.4941        14108.3115
  5112    51.1141    17616(133)         17356.4160        14099.2910
  5113    51.1241    16860(130)         16752.5625        14090.2676
  5114    51.1341    16512(128)         16200.8516        14081.2480
  5115    51.1441    16208(127)         15752.7100        14072.2246
  5116    51.1541    15784(126)         15430.5996        14063.2051
  5117    51.1641    15380(124)         15235.7295        14054.1846
  5118    51.1741    15228(123)         15159.6953        14045.1611
  5119    51.1841    15064(123)         15189.3438        14036.1416
  5120    51.1941    15280(124)         15305.3477        14027.1182
  5121    51.2041    15324(124)         15479.0840        14018.0977
  5122    51.2141    15644(125)         15670.9648        14009.0742
  5123    51.2241    15648(125)         15830.8145        14000.0547
  5124    51.2341    15888(126)         15906.1162        13991.0313
  5125    51.2441    15712(125)         15861.3076        13982.0107
  5126    51.2541    15628(125)         15699.1172        13972.9912
  5127    51.2641    15344(124)         15456.1406        13963.9678
  5128    51.2741    15028(123)         15180.4160        13954.9473
  5129    51.2841    14832(122)         14913.1250        13945.9238
  5130    51.2941    14728(121)         14682.0410        13936.9043
  5131    51.3041    14476(120)         14502.2295        13927.8809
  5132    51.3141    14544(121)         14379.0078        13922.0674
  5133    51.3241    14596(121)         14304.5723        13916.2520
  5134    51.3341    14668(121)         14273.4023        13910.4385
  5135    51.3441    14656(121)         14283.9873        13904.6240
  5136    51.3541    14660(121)         14342.3350        13898.8086
  5137    51.3641    14748(121)         14463.6895        13892.9951
  5138    51.3741    14988(122)         14671.1855        13887.1797
  5139    51.3841    15276(124)         14990.1523        13881.3662
  5140    51.3941    15780(126)         15440.0234        13875.5498
  5141    51.4041    16288(128)         16019.9141        13869.7363
  5142    51.4141    16792(130)         16697.5352        13863.9229
  5143    51.4241    17120(131)         17413.4043        13858.1074
  5144    51.4341    17684(133)         18064.1797        13852.2939
  5145    51.4441    18132(135)         18539.3223        13846.4775
  5146    51.4541    18784(137)         18747.9102        13840.6641
  5147    51.4641    18744(137)         18685.7031        13834.8486
  5148    51.4741    18684(137)         18449.9648        13829.0352
  5149    51.4841    18088(134)         18181.0938        13823.2197
  5150    51.4941    17760(133)         17998.1406        13817.4053
  5151    51.5041    17408(132)         17961.8906        13811.5918
  5152    51.5141    17464(132)         18059.1250        13805.7764
  5153    51.5241    17576(133)         18214.2246        13799.9629
  5154    51.5341    18004(134)         18305.7695        13794.1475
  5155    51.5441    17956(134)         18215.9160        13788.3340
  5156    51.5541    17936(134)         17900.9922        13782.5176
  5157    51.5641    17240(131)         17405.2754        13776.7041
  5158    51.5741    16520(129)         16818.8789        13770.8887
  5159    51.5841    15684(125)         16230.9395        13765.0752
  5160    51.5941    15372(124)         15704.5000        13759.2617
  5161    51.6041    14812(122)         15271.5371        13753.4453
  5162    51.6141    14664(121)         14937.3340        13747.6318
  5163    51.6241    14664(121)         14688.1309        13741.8164
  5164    51.6341    14556(121)         14502.7656        13736.0029
  5165    51.6441    14476(120)         14361.3760        13730.1875
  5166    51.6541    14312(120)         14251.6553        13724.3730
  5167    51.6641    14208(119)         14167.1113        13718.5596
  5168    51.6741    14208(119)         14106.3174        13712.7441
  5169    51.6841    14184(119)         14070.1406        13706.9307
  5170    51.6941    14192(119)         14060.5986        13701.1152
  5171    51.7041    14172(119)         14079.3447        13695.3018
  5172    51.7141    14108(119)         14127.4736        13689.4854
  5173    51.7241    14064(119)         14204.4355        13683.6719
  5174    51.7341    14216(119)         14305.3818        13677.8564
  5175    51.7441    14260(119)         14423.9375        13672.0430
  5176    51.7541    14492(120)         14547.6377        13666.2295
  5177    51.7641    14592(121)         14662.5488        13660.4131
  5178    51.7741    14896(122)         14754.2090        13654.5996
  5179    51.7841    14788(122)         14814.1563        13648.7842
  5180    51.7941    14864(122)         14837.0898        13642.9707
  5181    51.8041    14796(122)         14820.9824        13637.1543
  5182    51.8141    14944(122)         14772.4824        13631.3408
  5183    51.8241    14832(122)         14702.0225        13625.5254
  5184    51.8341    14768(122)         14624.0361        13619.7119
  5185    51.8441    14532(121)         14552.5137        13613.8984
  5186    51.8541    14720(121)         14500.3154        13608.0830
  5187    51.8641    14528(121)         14476.6650        13602.2686
  5188    51.8741    14740(121)         14490.1973        13596.4531
  5189    51.8841    14672(121)         14548.0225        13590.6396
  5190    51.8941    14968(122)         14655.7227        13584.8242
  5191    51.9041    15028(123)         14814.4766        13579.0107
  5192    51.9141    15244(123)         15022.0449        13573.1973
  5193    51.9241    15316(124)         15274.5879        13567.3809
  5194    51.9341    15596(125)         15573.5742        13561.5674
  5195    51.9441    15712(125)         15938.6270        13555.7520
  5196    51.9541    16144(127)         16422.0645        13549.9385
  5197    51.9641    16568(129)         17113.6484        13544.1221
  5198    51.9741    18064(134)         18110.2891        13538.3086
  5199    51.9841    19420(139)         19473.5781        13532.4932
  5200    51.9941    21720(147)         21180.4023        13526.6797
  5201    52.0041    23856(154)         23097.2109        13520.8662
  5202    52.0141    26192(162)         24971.3145        13515.0508
  5203    52.0241    26816(164)         26451.0430        13509.2363
  5204    52.0341    27068(165)         27169.6270        13503.4209
  5205    52.0441    25992(161)         26902.7559        13497.6074
  5206    52.0541    24212(156)         25711.4688        13491.7920
  5207    52.0641    22368(150)         23894.7988        13485.9785
  5208    52.0741    20972(145)         21816.1484        13480.1621
  5209    52.0841    19360(139)         19788.0742        13474.3486
  5210    52.0941    18036(134)         18018.3984        13468.5352
  5211    52.1041    16688(129)         16612.3047        13462.7197
  5212    52.1141    15908(126)         15582.8486        13456.9063
  5213    52.1241    15008(123)         14880.6650        13451.0898
  5214    52.1341    14692(121)         14430.4893        13445.2764
  5215    52.1441    14428(120)         14155.2119        13439.4609
  5216    52.1541    14368(120)         13991.4658        13433.6475
  5217    52.1641    14200(119)         13896.0879        13427.8340
  5218    52.1741    14184(119)         13840.1172        13422.0176
  5219    52.1841    13888(118)         13807.4561        13416.2041
  5220    52.1941    13972(118)         13789.5967        13410.3887
  5221    52.2041    13852(118)         13782.9492        13404.5752
  5222    52.2141    13884(118)         13792.8350        13403.4795
  5223    52.2241    14016(118)         13815.1572        13402.3838
  5224    52.2341    13916(118)         13851.2402        13401.2881
  5225    52.2441    13992(118)         13900.0117        13400.1934
  5226    52.2541    14064(119)         13957.4512        13399.0977
  5227    52.2641    13924(118)         14016.4473        13398.0020
  5228    52.2741    14224(119)         14067.5537        13396.9063
  5229    52.2841    14136(119)         14103.5518        13395.8105
  5230    52.2941    14280(119)         14121.8281        13394.7158
  5231    52.3041    14068(119)         14126.1270        13393.6201
  5232    52.3141    14080(119)         14122.6758        13392.5244
  5233    52.3241    13984(118)         14117.9463        13391.4287
  5234    52.3341    14012(118)         14118.8408        13390.3330
  5235    52.3441    14004(118)         14132.5195        13389.2383
  5236    52.3541    14284(120)         14168.0225        13388.1426
  5237    52.3641    14172(119)         14236.0469        13387.0469
  5238    52.3741    14368(120)         14346.1914        13385.9512
  5239    52.3841    14388(120)         14501.5801        13384.8555
  5240    52.3941    14772(122)         14691.6211        13383.7598
  5241    52.4041    14880(122)         14893.7109        13382.6641
  5242    52.4141    15008(123)         15071.1914        13381.5693
  5243    52.4241    14868(122)         15182.3975        13380.4736
  5244    52.4341    14876(122)         15192.9404        13379.3779
  5245    52.4441    14524(121)         15092.5928        13378.2822
  5246    52.4541    14384(120)         14901.9658        13377.1865
  5247    52.4641    14208(119)         14660.1680        13376.0908
  5248    52.4741    14072(119)         14407.8887        13374.9961
  5249    52.4841    13936(118)         14176.1484        13373.9004
  5250    52.4941    14008(118)         13984.1152        13372.8047
  5251    52.5041    13732(117)         13838.9424        13371.7090
  5252    52.5141    13700(117)         13738.9199        13370.6133
  5253    52.5241    13704(117)         13677.5127        13369.5186
  5254    52.5341    13752(117)         13647.0430        13368.4229
  5255    52.5441    13636(117)         13641.3691        13367.3271
  5256    52.5541    13620(117)         13658.8184        13366.2314
  5257    52.5641    13740(117)         13694.0273        13359.3672
  5258    52.5741    13808(118)         13755.7334        13352.5010
  5259    52.5841    13860(118)         13846.8359        13345.6377
  5260    52.5941    14084(119)         13967.7324        13338.7734
  5261    52.6041    14052(119)         14113.9268        13331.9072
  5262    52.6141    14272(119)         14274.3584        13325.0430
  5263    52.6241    14380(120)         14431.7822        13318.1768
  5264    52.6341    14536(121)         14564.5215        13311.3135
  5265    52.6441    14648(121)         14655.2891        13304.4463
  5266    52.6541    14872(122)         14694.6279        13297.5830
  5267    52.6641    14808(122)         14697.1348        13290.7188
  5268    52.6741    14848(122)         14687.3311        13283.8525
  5269    52.6841    14824(122)         14691.0000        13276.9883
  5270    52.6941    14864(122)         14729.2217        13270.1221
  5271    52.7041    14896(122)         14815.4688        13263.2588
  5272    52.7141    15000(122)         14954.3242        13256.3916
  5273    52.7241    15048(123)         15144.4473        13249.5283
  5274    52.7341    15228(123)         15385.7656        13242.6621
  5275    52.7441    15496(124)         15690.3691        13235.7979
  5276    52.7541    15848(126)         16090.9111        13228.9346
  5277    52.7641    16276(128)         16638.1543        13222.0674
  5278    52.7741    16952(130)         17398.9141        13215.2041
  5279    52.7841    17648(133)         18441.7012        13208.3379
  5280    52.7941    18904(137)         19822.0566        13201.4736
  5281    52.8041    20084(142)         21567.0293        13194.6074
  5282    52.8141    22608(150)         23652.5586        13187.7432
  5283    52.8241    25376(159)         25985.8164        13180.8770
  5284    52.8341    29124(171)         28371.6875        13174.0127
  5285    52.8441    31984(179)         30515.3477        13167.1494
  5286    52.8541    34088(185)         32065.0605        13160.2832
  5287    52.8641    34436(186)         32708.9141        13153.4189
  5288    52.8741    33072(182)         32261.8887        13146.5527
  5289    52.8841    30492(175)         30746.3359        13139.6885
  5290    52.8941    27348(165)         28420.1074        13132.8223
  5291    52.9041    24380(156)         25688.5273        13125.9590
  5292    52.9141    22080(149)         22949.0000        13119.0947
  5293    52.9241    19868(141)         20500.0156        13112.2285
  5294    52.9341    18392(136)         18517.6719        13105.3643
  5295    52.9441    16912(130)         17059.4004        13098.4980
  5296    52.9541    16288(128)         16097.5000        13091.6338
  5297    52.9641    15668(125)         15549.4912        13084.7676
  5298    52.9741    15456(124)         15314.4502        13077.9043
  5299    52.9841    15508(125)         15293.5342        13071.0371
  5300    52.9941    15368(124)         15404.6426        13064.1738
  5301    53.0041    15608(125)         15587.3799        13057.3096
  5302    53.0141    15920(126)         15807.1992        13050.4434
  5303    53.0241    16028(127)         16050.4482        13043.5791
  5304    53.0341    16584(129)         16311.0088        13036.7129
  5305    53.0441    16668(129)         16578.8320        13029.8496
  5306    53.0541    17168(131)         16837.9727        13022.9824
  5307    53.0641    17076(131)         17065.0801        13016.1191
  5308    53.0741    17208(131)         17233.2793        13009.2529
  5309    53.0841    17232(131)         17317.7383        13002.3887
  5310    53.0941    17348(132)         17295.8633        12995.5254
  5311    53.1041    17332(132)         17140.6094        12988.6582
  5312    53.1141    17284(131)         16833.5000        12981.7949
  5313    53.1241    16860(130)         16389.2422        12974.9287
  5314    53.1341    16292(128)         15862.3301        12968.0645
  5315    53.1441    15428(124)         15321.1592        12961.1982
  5316    53.1541    14816(122)         14826.2109        12954.3340
  5317    53.1641    14284(120)         14419.1045        12947.4707
  5318    53.1741    14112(119)         14121.9395        12940.6035
  5319    53.1841    13932(118)         13939.2266        12933.7402
  5320    53.1941    14104(119)         13860.2881        12926.8740
  5321    53.2041    14028(118)         13865.0723        12920.0098
  5322    53.2141    14216(119)         13928.5859        12913.1436
  5323    53.2241    14128(119)         14024.8008        12906.2793
  5324    53.2341    14368(120)         14130.5313        12899.4131
  5325    53.2441    14396(120)         14230.1338        12892.5498
  5326    53.2541    14680(121)         14321.8301        12885.6855
  5327    53.2641    14740(121)         14416.9727        12878.8193
  5328    53.2741    15032(123)         14528.4648        12871.9551
  5329    53.2841    15084(123)         14659.7129        12865.0889
  5330    53.2941    15240(123)         14796.4707        12858.2246
  5331    53.3041    15352(124)         14908.8672        12851.3584
  5332    53.3141    15356(124)         14958.6367        12844.4951
  5333    53.3241    15176(123)         14917.8965        12837.6279
  5334    53.3341    15140(123)         14789.8691        12830.7646
  5335    53.3441    14936(122)         14611.2344        12823.9004
  5336    53.3541    14912(122)         14434.9922        12817.0342
  5337    53.3641    14792(122)         14310.0801        12810.1709
  5338    53.3741    14660(121)         14283.5010        12803.3037
  5339    53.3841    14740(121)         14374.4043        12796.4404
  5340    53.3941    14868(122)         14581.4824        12789.5742
  5341    53.4041    15148(123)         14877.5186        12782.7100
  5342    53.4141    15612(125)         15211.3496        12775.8457
  5343    53.4241    16028(127)         15513.0986        12768.9795
  5344    53.4341    16184(127)         15706.1631        12762.1162
  5345    53.4441    16104(127)         15732.3262        12755.2490
  5346    53.4541    15888(126)         15580.5254        12748.3857
  5347    53.4641    15452(124)         15292.8242        12741.5195
  5348    53.4741    15028(123)         14939.8271        12734.6553
  5349    53.4841    14420(120)         14591.5850        12727.7891
  5350    53.4941    14188(119)         14303.2764        12720.9248
  5351    53.5041    13904(118)         14108.0801        12714.0615
  5352    53.5141    13844(118)         14016.3760        12707.1953
  5353    53.5241    13756(117)         14018.2920        12700.3311
  5354    53.5341    13884(118)         14089.0693        12693.4648
  5355    53.5441    14072(119)         14196.2783        12686.6006
  5356    53.5541    14220(119)         14306.8496        12679.7344
  5357    53.5641    14232(119)         14390.3838        12672.8701
  5358    53.5741    14488(120)         14427.3438        12666.0039
  5359    53.5841    14248(119)         14414.0117        12659.1406
  5360    53.5941    14300(120)         14367.3672        12652.2764
  5361    53.6041    14236(119)         14311.9434        12645.4102
  5362    53.6141    14244(119)         14267.6201        12638.5459
  5363    53.6241    14056(119)         14244.1660        12631.6797
  5364    53.6341    14256(119)         14241.8301        12624.8154
  5365    53.6441    14192(119)         14256.9551        12617.9492
  5366    53.6541    14324(120)         14284.6416        12611.0859
  5367    53.6641    14224(119)         14317.0645        12604.2217
  5368    53.6741    14316(120)         14341.4619        12597.3555
  5369    53.6841    14360(120)         14340.8057        12590.4912
  5370    53.6941    14384(120)         14297.2939        12583.6250
  5371    53.7041    14184(119)         14199.5586        12576.7617
  5372    53.7141    13976(118)         14049.3330        12569.8945
  5373    53.7241    13800(117)         13860.5811        12563.0313
  5374    53.7341    13612(117)         13653.5908        12556.1650
  5375    53.7441    13516(116)         13448.5996        12549.3008
  5376    53.7541    13320(115)         13260.9756        12542.4365
  5377    53.7641    13100(114)         13100.1660        12535.5703
  5378    53.7741    13108(114)         12970.2539        12528.7070
  5379    53.7841    13088(114)         12871.0547        12521.8398
  5380    53.7941    12964(114)         12798.7461        12514.9766
  5381    53.8041    13092(114)         12748.1748        12508.1104
  5382    53.8141    13000(114)         12714.2012        12501.2461
  5383    53.8241    12892(114)         12692.3613        12494.3799
  5384    53.8341    12944(114)         12679.2930        12487.5156
  5385    53.8441    12908(114)         12672.7051        12480.6523
  5386    53.8541    13020(114)         12672.2207        12473.7861
  5387    53.8641    12868(113)         12675.7588        12466.9219
  5388    53.8741    12948(114)         12690.4980        12465.3086
  5389    53.8841    13080(114)         12714.1299        12463.6953
  5390    53.8941    13208(115)         12752.8545        12462.0820
  5391    53.9041    13216(115)         12817.9678        12460.4688
  5392    53.9141    13336(115)         12928.2344        12458.8555
  5393    53.9241    13436(116)         13111.6680        12457.2422
  5394    53.9341    13696(117)         13405.0332        12455.6289
  5395    53.9441    13912(118)         13850.2295        12454.0156
  5396    53.9541    14532(121)         14483.6992        12452.4023
  5397    53.9641    14884(122)         15323.4971        12450.7881
  5398    53.9741    15720(125)         16351.0664        12449.1758
  5399    53.9841    16424(128)         17500.7305        12447.5615
  5400    53.9941    17408(132)         18652.7734        12445.9492
  5401    54.0041    18040(134)         19641.3984        12444.3359
  5402    54.0141    18956(138)         20281.1543        12442.7227
  5403    54.0241    19468(140)         20427.9180        12441.1094
  5404    54.0341    19348(139)         20058.8340        12439.4951
  5405    54.0441    18532(136)         19284.2695        12437.8828
  5406    54.0541    17624(133)         18278.4258        12436.2686
  5407    54.0641    16408(128)         17208.9141        12434.6563
  5408    54.0741    15252(123)         16200.3477        12433.0420
  5409    54.0841    14368(120)         15331.7754        12431.4287
  5410    54.0941    13872(118)         14641.6719        12429.8164
  5411    54.1041    13640(117)         14138.4893        12428.2021
  5412    54.1141    13572(116)         13811.5605        12426.5898
  5413    54.1241    13448(116)         13639.9600        12424.9756
  5414    54.1341    13420(116)         13599.8770        12423.3633
  5415    54.1441    13416(116)         13665.5400        12421.7490
  5416    54.1541    13716(117)         13808.9502        12420.1357
  5417    54.1641    13752(117)         13995.2607        12418.5234
  5418    54.1741    14192(119)         14184.2861        12416.9092
  5419    54.1841    14124(119)         14331.3672        12415.2969
  5420    54.1941    14408(120)         14399.2109        12413.6826
  5421    54.2041    14188(119)         14365.8262        12412.0693
  5422    54.2141    14228(119)         14236.3652        12410.4561
  5423    54.2241    13904(118)         14030.5967        12408.8428
  5424    54.2341    13680(117)         13782.2539        12407.2295
  5425    54.2441    13456(116)         13530.0186        12405.6162
  5426    54.2541    13432(116)         13302.4580        12404.0039
  5427    54.2641    13136(115)         13121.3623        12402.3896
  5428    54.2741    13112(115)         12999.5566        12400.7764
  5429    54.2841    12960(114)         12941.8223        12399.1631
  5430    54.2941    12960(114)         12946.7637        12397.5498
  5431    54.3041    12956(114)         13007.5137        12395.9365
  5432    54.3141    13180(115)         13111.8887        12394.3232
  5433    54.3241    13328(115)         13242.4697        12392.7100
  5434    54.3341    13500(116)         13376.6924        12391.0967
  5435    54.3441    13772(117)         13488.6211        12389.4834
  5436    54.3541    13772(117)         13553.0322        12387.8701
  5437    54.3641    13668(117)         13555.3477        12386.2568
  5438    54.3741    13696(117)         13499.2637        12384.6436
  5439    54.3841    13388(116)         13405.4150        12383.0303
  5440    54.3941    13264(115)         13300.2217        12381.4170
  5441    54.4041    13128(115)         13207.1104        12379.8037
  5442    54.4141    13116(115)         13139.3047        12378.1904
  5443    54.4241    13136(115)         13100.9014        12376.5771
  5444    54.4341    13248(115)         13087.0498        12374.9639
  5445    54.4441    13224(115)         13085.2725        12373.3506
  5446    54.4541    13420(116)         13081.7275        12371.7373
  5447    54.4641    13260(115)         13067.1621        12370.1240
  5448    54.4741    13208(115)         13043.7314        12368.5107
  5449    54.4841    13076(114)         13019.2227        12366.8975
  5450    54.4941    13000(114)         13003.6064        12365.2842
  5451    54.5041    13032(114)         13004.4512        12363.6709
  5452    54.5141    13148(115)         13022.3916        12362.0576
  5453    54.5241    13052(114)         13053.4316        12360.4443
  5454    54.5341    13080(114)         13088.2617        12358.8311
  5455    54.5441    13024(114)         13115.6494        12357.2178
  5456    54.5541    13256(115)         13125.2969        12355.6045
  5457    54.5641    13228(115)         13109.4648        12353.9912
  5458    54.5741    13236(115)         13064.6973        12352.3779
  5459    54.5841    13060(114)         12993.9678        12350.7646
  5460    54.5941    13072(114)         12906.3018        12349.1514
  5461    54.6041    12808(113)         12813.1367        12347.5381
  5462    54.6141    12720(113)         12725.5811        12345.9248
  5463    54.6241    12668(113)         12651.4453        12344.3115
  5464    54.6341    12540(112)         12595.7881        12342.6982
  5465    54.6441    12576(112)         12560.4297        12341.0840
  5466    54.6541    12588(112)         12546.5596        12339.4717
  5467    54.6641    12512(112)         12553.9932        12337.8584
  5468    54.6741    12512(112)         12579.5010        12333.2871
  5469    54.6841    12716(113)         12623.8018        12328.7178
  5470    54.6941    12740(113)         12685.3057        12324.1475
  5471    54.7041    12748(113)         12758.3721        12319.5781
  5472    54.7141    12832(113)         12835.4277        12315.0068
  5473    54.7241    12748(113)         12906.3477        12310.4375
  5474    54.7341    12820(113)         12959.9141        12305.8662
  5475    54.7441    12932(114)         12985.5000        12301.2969
  5476    54.7541    12832(113)         12976.6318        12296.7275
  5477    54.7641    12748(113)         12934.5967        12292.1563
  5478    54.7741    12896(114)         12868.6533        12287.5869
  5479    54.7841    12732(113)         12791.5801        12283.0166
  5480    54.7941    12760(113)         12715.5039        12278.4473
  5481    54.8041    12712(113)         12649.5889        12273.8760
  5482    54.8141    12632(112)         12600.3525        12269.3066
  5483    54.8241    12676(113)         12573.1094        12264.7354
  5484    54.8341    12696(113)         12572.0732        12260.1660
  5485    54.8441    12624(112)         12603.8721        12255.5967
  5486    54.8541    12732(113)         12679.4248        12251.0264
  5487    54.8641    12788(113)         12815.1406        12246.4570
  5488    54.8741    13076(114)         13033.0342        12241.8857
  5489    54.8841    13200(115)         13356.4043        12237.3164
  5490    54.8941    13736(117)         13805.2168        12232.7451
  5491    54.9041    14116(119)         14385.4561        12228.1758
  5492    54.9141    15336(124)         15079.7422        12223.6064
  5493    54.9241    16480(128)         15841.6777        12219.0352
  5494    54.9341    17560(133)         16591.1641        12214.4658
  5495    54.9441    18224(135)         17223.5820        12209.8955
  5496    54.9541    18516(136)         17630.3379        12205.3262
  5497    54.9641    17976(134)         17733.3066        12200.7549
  5498    54.9741    17444(132)         17513.6582        12196.1855
  5499    54.9841    16460(128)         17019.5742        12191.6143
  5500    54.9941    15804(126)         16348.2832        12187.0449
  5501    55.0041    15204(123)         15609.4326        12182.4756
  5502    55.0141    14760(121)         14896.0820        12177.9053
  5503    55.0241    14312(120)         14271.6816        12173.3359
  5504    55.0341    14096(119)         13768.2852        12168.7646
  5505    55.0441    13804(117)         13394.1152        12164.1953
  5506    55.0541    13464(116)         13139.1797        12159.6240
  5507    55.0641    13264(115)         12983.4775        12155.0547
  5508    55.0741    13260(115)         12902.3604        12150.4834
  5509    55.0841    13064(114)         12871.1406        12145.9141
  5510    55.0941    13188(115)         12867.3320        12141.3447
  5511    55.1041    13172(115)         12872.7422        12136.7744
  5512    55.1141    13156(115)         12873.1719        12132.2051
  5513    55.1241    13148(115)         12859.9316        12127.6338
  5514    55.1341    13092(114)         12833.0459        12123.0645
  5515    55.1441    12932(114)         12803.1182        12118.4932
  5516    55.1541    13100(114)         12789.5107        12113.9238
  5517    55.1641    13140(115)         12816.6836        12109.3545
  5518    55.1741    13176(115)         12911.1836        12104.7842
  5519    55.1841    13264(115)         13098.2051        12100.2148
  5520    55.1941    13392(116)         13396.5176        12095.6436
  5521    55.2041    13752(117)         13811.0830        12091.0742
  5522    55.2141    14044(119)         14327.0820        12086.5029
  5523    55.2241    14296(120)         14903.9043        12081.9336
  5524    55.2341    14756(121)         15475.9063        12077.3623
  5525    55.2441    14984(122)         15955.1680        12072.7930
  5526    55.2541    15124(123)         16247.8672        12068.2246
  5527    55.2641    15268(124)         16284.3340        12063.6533
  5528    55.2741    15748(125)         16054.5586        12059.0840
  5529    55.2841    15460(124)         15615.7959        12054.5127
  5530    55.2941    15064(123)         15059.7383        12049.9434
  5531    55.3041    14288(120)         14476.5547        12045.3721
  5532    55.3141    13844(118)         13938.2119        12040.8027
  5533    55.3241    13416(116)         13490.9316        12036.2324
  5534    55.3341    13004(114)         13156.2939        12031.6631
  5535    55.3441    12760(113)         12935.3652        12027.0938
  5536    55.3541    12792(113)         12815.5557        12022.5225
  5537    55.3641    12716(113)         12777.2432        12017.9531
  5538    55.3741    12772(113)         12798.6133        12013.3818
  5539    55.3841    12632(112)         12858.0225        12008.8125
  5540    55.3941    12680(113)         12934.2510        12004.2412
  5541    55.4041    12808(113)         13005.0830        11999.6729
  5542    55.4141    12976(114)         13056.1582        11995.1035
  5543    55.4241    12896(114)         13072.1055        11990.5322
  5544    55.4341    12944(114)         13045.8252        11985.9629
  5545    55.4441    12772(113)         12979.7070        11981.3916
  5546    55.4541    12828(113)         12886.0244        11976.8223
  5547    55.4641    12652(112)         12781.4121        11972.2510
  5548    55.4741    12740(113)         12682.1484        11967.6816
  5549    55.4841    12608(112)         12601.5889        11963.1113
  5550    55.4941    12612(112)         12550.3271        11958.5420
  5551    55.5041    12456(112)         12535.5244        11953.9727
  5552    55.5141    12672(113)         12560.1895        11949.4014
  5553    55.5241    12732(113)         12622.8906        11944.8320
  5554    55.5341    12908(114)         12717.4980        11940.2607
  5555    55.5441    13056(114)         12833.2080        11935.6914
  5556    55.5541    13028(114)         12955.6611        11931.1211
  5557    55.5641    12892(114)         13069.4453        11926.5518
  5558    55.5741    13092(114)         13158.4170        11921.9805
  5559    55.5841    13036(114)         13205.9219        11917.4111
  5560    55.5941    13148(115)         13197.0742        11912.8418
  5561    55.6041    13144(115)         13125.9941        11908.2705
  5562    55.6141    13224(115)         13000.3750        11903.7012
  5563    55.6241    12888(114)         12840.8682        11899.1299
  5564    55.6341    12980(114)         12670.1963        11894.5605
  5565    55.6441    12824(113)         12507.2061        11889.9902
  5566    55.6541    12624(112)         12365.2480        11885.4209
  5567    55.6641    12528(112)         12251.2920        11880.8516
  5568    55.6741    12536(112)         12167.5742        11876.2803
  5569    55.6841    12276(111)         12112.1162        11871.7109
  5570    55.6941    12300(111)         12087.6738        11872.5166
  5571    55.7041    12344(111)         12086.8213        11873.3223
  5572    55.7141    12352(111)         12109.4658        11874.1279
  5573    55.7241    12292(111)         12157.7930        11874.9336
  5574    55.7341    12456(112)         12236.0811        11875.7393
  5575    55.7441    12384(111)         12349.1494        11876.5449
  5576    55.7541    12596(112)         12500.1406        11877.3506
  5577    55.7641    12688(113)         12688.8740        11878.1563
  5578    55.7741    12912(114)         12907.6699        11878.9619
  5579    55.7841    13056(114)         13141.4170        11879.7686
  5580    55.7941    13360(116)         13367.9902        11880.5732
  5581    55.8041    13516(116)         13561.0430        11881.3799
  5582    55.8141    14020(118)         13696.6543        11882.1855
  5583    55.8241    13976(118)         13759.0586        11882.9912
  5584    55.8341    14120(119)         13750.4727        11883.7969
  5585    55.8441    13792(117)         13696.9570        11884.6025
  5586    55.8541    13692(117)         13640.1182        11885.4082
  5587    55.8641    13504(116)         13622.0664        11886.2139
  5588    55.8741    13484(116)         13672.1113        11887.0195
  5589    55.8841    13536(116)         13800.0254        11887.8252
  5590    55.8941    13696(117)         13993.0127        11888.6309
  5591    55.9041    14076(119)         14216.3193        11889.4365
  5592    55.9141    14232(119)         14419.1865        11890.2422
  5593    55.9241    14460(120)         14546.0186        11891.0479
  5594    55.9341    14468(120)         14555.8203        11891.8535
  5595    55.9441    14244(119)         14443.1221        11892.6592
  5596    55.9541    14208(119)         14242.8789        11893.4648
  5597    55.9641    13920(118)         14013.8594        11894.2705
  5598    55.9741    13724(117)         13820.0352        11895.0762
  5599    55.9841    13632(117)         13717.4844        11895.8818
  5600    55.9941    13500(116)         13747.9746        11896.6875
  5601    56.0041    13608(117)         13932.0801        11897.4932
  5602    56.0141    13808(118)         14267.5498        11898.2988
  5603    56.0241    14216(119)         14724.4102        11899.1045
  5604    56.0341    14808(122)         15250.4805        11899.9102
  5605    56.0441    15412(124)         15772.4180        11900.7158
  5606    56.0541    16028(127)         16208.1729        11901.5215
  5607    56.0641    16420(128)         16485.4180        11902.3271
  5608    56.0741    16716(129)         16565.3633        11903.1338
  5609    56.0841    16544(129)         16449.3535        11903.9395
  5610    56.0941    15984(126)         16166.8105        11904.7441
  5611    56.1041    15312(124)         15759.2842        11905.5508
  5612    56.1141    14976(122)         15274.3662        11906.3564
  5613    56.1241    14420(120)         14758.0527        11907.1621
  5614    56.1341    14176(119)         14253.0957        11907.9678
  5615    56.1441    13836(118)         13791.9229        11908.7734
  5616    56.1541    13588(117)         13397.0732        11909.5791
  5617    56.1641    13000(114)         13080.7188        11910.3848
  5618    56.1741    13052(114)         12845.4717        11911.1904
  5619    56.1841    12924(114)         12686.9063        11911.9961
  5620    56.1941    12916(114)         12595.2422        11912.8018
  5621    56.2041    12796(113)         12558.0049        11913.6074
  5622    56.2141    12844(113)         12562.2236        11914.4131
  5623    56.2241    12720(113)         12596.0127        11915.2188
  5624    56.2341    12944(114)         12650.5215        11916.0244
  5625    56.2441    12924(114)         12722.1406        11916.8301
  5626    56.2541    13004(114)         12814.0615        11917.6357
  5627    56.2641    13084(114)         12933.6348        11918.4414
  5628    56.2741    13136(115)         13087.2773        11919.2471
  5629    56.2841    13356(116)         13274.8633        11920.0527
  5630    56.2941    13628(117)         13486.1709        11920.8584
  5631    56.3041    13780(117)         13701.3623        11921.6641
  5632    56.3141    14132(119)         13889.0674        11922.4697
  5633    56.3241    14048(119)         14020.8613        11923.2754
  5634    56.3341    14196(119)         14074.1895        11924.0811
  5635    56.3441    13992(118)         14037.9053        11924.8867
  5636    56.3541    13844(118)         13915.4023        11925.6924
  5637    56.3641    13564(116)         13726.5859        11926.4980
  5638    56.3741    13356(116)         13502.1377        11927.3047
  5639    56.3841    13048(114)         13270.4141        11928.1094
  5640    56.3941    12992(114)         13052.8486        11928.9160
  5641    56.4041    12888(114)         12860.5781        11929.7217
  5642    56.4141    12796(113)         12696.2363        11930.5264
  5643    56.4241    12588(112)         12559.4316        11931.3330
  5644    56.4341    12584(112)         12447.7266        11932.1387
  5645    56.4441    12536(112)         12358.0195        11932.9443
  5646    56.4541    12424(111)         12287.4902        11933.7500
  5647    56.4641    12328(111)         12233.5215        11934.5557
  5648    56.4741    12308(111)         12193.9658        11935.3613
  5649    56.4841    12116(110)         12166.8154        11936.1670
  5650    56.4941    12172(110)         12153.0430        11939.6797
  5651    56.5041    12168(110)         12148.5781        11943.1924
  5652    56.5141    12156(110)         12152.8398        11946.7061
  5653    56.5241    12140(110)         12165.8525        11950.2188
  5654    56.5341    12124(110)         12187.8760        11953.7334
  5655    56.5441    12180(110)         12219.3633        11957.2461
  5656    56.5541    12392(111)         12260.0459        11960.7598
  5657    56.5641    12296(111)         12309.1064        11964.2725
  5658    56.5741    12588(112)         12365.0791        11967.7861
  5659    56.5841    12352(111)         12425.7900        11971.2988
  5660    56.5941    12416(111)         12489.0313        11974.8115
  5661    56.6041    12664(113)         12553.8574        11978.3262
  5662    56.6141    12804(113)         12622.7676        11981.8389
  5663    56.6241    12688(113)         12701.6807        11985.3525
  5664    56.6341    12784(113)         12800.7842        11988.8652
  5665    56.6441    12828(113)         12929.2646        11992.3789
  5666    56.6541    12876(113)         13091.0244        11995.8916
  5667    56.6641    13236(115)         13282.0908        11999.4043
  5668    56.6741    13308(115)         13489.8604        12002.9189
  5669    56.6841    13344(116)         13693.7910        12006.4316
  5670    56.6941    13516(116)         13873.3516        12009.9453
  5671    56.7041    13316(115)         14006.2852        12013.4580
  5672    56.7141    13532(116)         14079.2314        12016.9717
  5673    56.7241    13456(116)         14093.8887        12020.4844
  5674    56.7341    13680(117)         14066.8164        12023.9990
  5675    56.7441    13828(118)         14018.1172        12027.5117
  5676    56.7541    13960(118)         13960.8203        12031.0244
  5677    56.7641    14024(118)         13895.8516        12034.5381
  5678    56.7741    14172(119)         13814.0566        12038.0508
  5679    56.7841    13900(118)         13703.6504        12041.5645
  5680    56.7941    13712(117)         13560.7705        12045.0771
  5681    56.8041    13576(117)         13393.8203        12048.5918
  5682    56.8141    13384(116)         13220.2236        12052.1045
  5683    56.8241    13080(114)         13059.0371        12055.6182
  5684    56.8341    12984(114)         12926.6934        12059.1309
  5685    56.8441    13076(114)         12833.7881        12062.6436
  5686    56.8541    13168(115)         12783.2549        12066.1572
  5687    56.8641    13200(115)         12772.6885        12069.6699
  5688    56.8741    13260(115)         12793.3594        12073.1846
  5689    56.8841    13280(115)         12832.2461        12076.6973
  5690    56.8941    13304(115)         12877.9824        12080.2109
  5691    56.9041    13380(116)         12921.6963        12083.7236
  5692    56.9141    13296(115)         12958.1484        12087.2363
  5693    56.9241    13048(114)         12987.0771        12090.7500
  5694    56.9341    13120(115)         13014.0117        12094.2627
  5695    56.9441    12992(114)         13049.5283        12097.7773
  5696    56.9541    13100(114)         13105.9766        12101.2900
  5697    56.9641    12972(114)         13194.6133        12104.8037
  5698    56.9741    13096(114)         13324.1348        12108.3164
  5699    56.9841    13376(116)         13499.6094        12111.8311
  5700    56.9941    13692(117)         13720.0293        12115.3438
  5701    57.0041    13884(118)         13978.3271        12118.8564
  5702    57.0141    14400(120)         14263.1719        12122.3701
  5703    57.0241    14736(121)         14561.0684        12125.8828
  5704    57.0341    15272(124)         14858.7480        12129.3965
  5705    57.0441    15596(125)         15138.2656        12132.9092
  5706    57.0541    15804(126)         15376.4160        12136.4238
  5707    57.0641    15680(125)         15547.7979        12139.9365
  5708    57.0741    15772(126)         15637.9863        12143.4502
  5709    57.0841    15744(125)         15653.2109        12146.9629
  5710    57.0941    15580(125)         15614.8467        12150.4756
  5711    57.1041    15368(124)         15543.4629        12153.9893
  5712    57.1141    15220(123)         15448.2773        12157.5020
  5713    57.1241    14852(122)         15325.4238        12161.0166
  5714    57.1341    14640(121)         15165.2910        12164.5293
  5715    57.1441    14252(119)         14964.3447        12168.0430
  5716    57.1541    14052(119)         14734.0605        12171.5557
  5717    57.1641    13916(118)         14497.6133        12175.0684
  5718    57.1741    13836(118)         14281.7256        12178.5820
  5719    57.1841    13612(117)         14111.0898        12182.0947
  5720    57.1941    13812(118)         14003.0645        12185.6094
  5721    57.2041    13976(118)         13966.1455        12189.1221
  5722    57.2141    14152(119)         13996.3506        12192.6357
  5723    57.2241    14112(119)         14075.7949        12196.1484
  5724    57.2341    14380(120)         14173.5078        12199.6621
  5725    57.2441    14184(119)         14250.0459        12203.1748
  5726    57.2541    14232(119)         14266.4414        12206.6875
  5727    57.2641    14044(119)         14197.3135        12210.2021
  5728    57.2741    13824(118)         14043.6953        12213.7148
  5729    57.2841    13644(117)         13827.6367        12217.2285
  5730    57.2941    13592(117)         13580.9678        12220.7412
  5731    57.3041    13336(115)         13334.1094        12224.2549
  5732    57.3141    13132(115)         13111.3828        12227.7676
  5733    57.3241    13016(114)         12928.1680        12231.2822
  5734    57.3341    12856(113)         12792.6660        12234.7949
  5735    57.3441    12456(112)         12706.9463        12238.3076
  5736    57.3541    12488(112)         12670.3252        12241.8213
  5737    57.3641    12420(111)         12681.9414        12245.3340
  5738    57.3741    12576(112)         12735.6973        12239.8262
  5739    57.3841    12656(112)         12845.0459        12234.3203
  5740    57.3941    12808(113)         13017.1533        12228.8125
  5741    57.4041    13012(114)         13258.4375        12223.3066
  5742    57.4141    13300(115)         13571.1025        12217.8008
  5743    57.4241    13680(117)         13948.8105        12212.2930
  5744    57.4341    14224(119)         14372.7070        12206.7871
  5745    57.4441    14748(121)         14811.4219        12201.2793
  5746    57.4541    15416(124)         15222.5508        12195.7734
  5747    57.4641    16096(127)         15557.8330        12190.2656
  5748    57.4741    16380(128)         15776.1230        12184.7598
  5749    57.4841    16300(128)         15855.1992        12179.2520
  5750    57.4941    16100(127)         15804.1494        12173.7461
  5751    57.5041    15604(125)         15669.0264        12168.2402
  5752    57.5141    15312(124)         15521.4287        12162.7324
  5753    57.5241    14992(122)         15433.4414        12157.2266
  5754    57.5341    15120(123)         15457.5566        12151.7188
  5755    57.5441    15008(123)         15614.8164        12146.2129
  5756    57.5541    15568(125)         15890.2295        12140.7051
  5757    57.5641    16308(128)         16231.9727        12135.1992
  5758    57.5741    17188(131)         16561.4805        12129.6914
  5759    57.5841    17908(134)         16787.9023        12124.1865
  5760    57.5941    18580(136)         16836.4043        12118.6807
  5761    57.6041    18128(135)         16679.0684        12113.1729
  5762    57.6141    17728(133)         16344.8701        12107.6670
  5763    57.6241    16664(129)         15899.3945        12102.1592
  5764    57.6341    15988(126)         15416.5391        12096.6533
  5765    57.6441    14920(122)         14957.6641        12091.1455
  5766    57.6541    14492(120)         14565.3340        12085.6396
  5767    57.6641    13952(118)         14262.0430        12080.1338
  5768    57.6741    13828(118)         14057.0557        12074.6260
  5769    57.6841    13828(118)         13955.7148        12069.1201
  5770    57.6941    13868(118)         13966.2500        12063.6123
  5771    57.7041    13908(118)         14099.2939        12058.1064
  5772    57.7141    14340(120)         14364.2734        12052.5986
  5773    57.7241    14552(121)         14761.2754        12047.0928
  5774    57.7341    15248(123)         15275.1758        12041.5850
  5775    57.7441    15908(126)         15870.2090        12036.0791
  5776    57.7541    16616(129)         16490.8926        12030.5732
  5777    57.7641    17224(131)         17064.2930        12025.0654
  5778    57.7741    17752(133)         17505.3496        12019.5596
  5779    57.7841    17572(133)         17732.0645        12014.0518
  5780    57.7941    17500(132)         17693.4902        12008.5459
  5781    57.8041    16964(130)         17401.7168        12003.0381
  5782    57.8141    16368(128)         16929.9434        11997.5322
  5783    57.8241    15684(125)         16379.2510        11992.0244
  5784    57.8341    15348(124)         15844.1465        11986.5186
  5785    57.8441    15036(123)         15391.1260        11981.0127
  5786    57.8541    14992(122)         15051.4688        11975.5049
  5787    57.8641    14916(122)         14821.1797        11969.9990
  5788    57.8741    15020(123)         14666.3174        11964.4912
  5789    57.8841    15152(123)         14535.9375        11958.9854
  5790    57.8941    15108(123)         14380.6533        11953.4775
  5791    57.9041    14704(121)         14172.6016        11947.9717
  5792    57.9141    14376(120)         13912.3213        11942.4658
  5793    57.9241    13768(117)         13620.1445        11936.9580
  5794    57.9341    13532(116)         13323.4160        11931.4521
  5795    57.9441    12980(114)         13047.1250        11925.9443
  5796    57.9541    12788(113)         12810.3438        11920.4385
  5797    57.9641    12512(112)         12623.9893        11914.9307
  5798    57.9741    12468(112)         12491.8105        11909.4258
  5799    57.9841    12540(112)         12412.4727        11903.9170
  5800    57.9941    12544(112)         12382.5742        11898.4121
  5801    58.0041    12424(111)         12398.9365        11892.9063
  5802    58.0141    12704(113)         12460.1846        11887.3984
  5803    58.0241    12568(112)         12566.4814        11881.8926
  5804    58.0341    12952(114)         12718.2148        11876.3848
  5805    58.0441    12892(114)         12912.6182        11870.8789
  5806    58.0541    13152(115)         13141.0166        11865.3711
  5807    58.0641    13124(115)         13386.0713        11859.8652
  5808    58.0741    13404(116)         13621.6074        11854.3574
  5809    58.0841    13544(116)         13814.0107        11848.8516
  5810    58.0941    13792(117)         13928.0039        11843.3457
  5811    58.1041    14048(119)         13937.7637        11837.8379
  5812    58.1141    14212(119)         13839.3877        11832.3320
  5813    58.1241    13912(118)         13653.9746        11826.8242
  5814    58.1341    13768(117)         13418.2266        11821.3184
  5815    58.1441    13280(115)         13167.9150        11815.8105
  5816    58.1541    13020(114)         12935.5850        11810.3047
  5817    58.1641    12752(113)         12742.8975        11804.7988
  5818    58.1741    12608(112)         12600.5479        11799.2910
  5819    58.1841    12420(111)         12510.2383        11793.7852
  5820    58.1941    12448(112)         12464.7197        11788.2773
  5821    58.2041    12372(111)         12452.5684        11782.7715
  5822    58.2141    12424(111)         12461.0977        11777.2637
  5823    58.2241    12480(112)         12479.6367        11771.7578
  5824    58.2341    12580(112)         12503.0664        11766.2500
  5825    58.2441    12676(113)         12535.2246        11760.7441
  5826    58.2541    12692(113)         12590.3936        11755.2383
  5827    58.2641    12660(113)         12690.7559        11749.7305
  5828    58.2741    12772(113)         12862.0703        11744.2246
  5829    58.2841    12844(113)         13129.4150        11738.7168
  5830    58.2941    13184(115)         13511.2666        11733.2109
  5831    58.3041    13516(116)         14014.6025        11727.7031
  5832    58.3141    14140(119)         14627.7080        11722.1973
  5833    58.3241    14628(121)         15317.3711        11716.6895
  5834    58.3341    15596(125)         16026.1621        11711.1836
  5835    58.3441    16344(128)         16678.5566        11705.6777
  5836    58.3541    17112(131)         17192.9531        11700.1699
  5837    58.3641    17576(133)         17496.0488        11694.6641
  5838    58.3741    17528(132)         17539.3828        11689.1563
  5839    58.3841    17284(131)         17313.8242        11683.6514
  5840    58.3941    16892(130)         16856.5820        11678.1426
  5841    58.4041    16100(127)         16239.6738        11672.6377
  5842    58.4141    15292(124)         15545.4199        11667.1318
  5843    58.4241    14368(120)         14850.0293        11661.6240
  5844    58.4341    13940(118)         14212.0840        11656.1182
  5845    58.4441    13284(115)         13665.3467        11650.6104
  5846    58.4541    12988(114)         13222.8975        11645.1045
  5847    58.4641    12852(113)         12880.3818        11639.5967
  5848    58.4741    12632(112)         12623.9346        11634.0908
  5849    58.4841    12424(111)         12434.9570        11628.5830
  5850    58.4941    12328(111)         12294.4141        11623.0771
  5851    58.5041    12288(111)         12186.4912        11617.5713
  5852    58.5141    12240(111)         12100.3574        11612.0635
  5853    58.5241    12108(110)         12030.7148        11606.5576
  5854    58.5341    12088(110)         11975.4971        11601.0498
  5855    58.5441    12020(110)         11936.5244        11595.5439
  5856    58.5541    12028(110)         11915.4502        11590.0361
  5857    58.5641    11912(109)         11915.1738        11584.5303
  5858    58.5741    12040(110)         11946.1367        11586.2314
  5859    58.5841    12024(110)         12003.9277        11587.9316
  5860    58.5941    12372(111)         12090.4219        11589.6309
  5861    58.6041    12344(111)         12205.5713        11591.3320
  5862    58.6141    12352(111)         12347.4980        11593.0322
  5863    58.6241    12360(111)         12510.2617        11594.7334
  5864    58.6341    12664(113)         12684.8896        11596.4336
  5865    58.6441    12788(113)         12860.1807        11598.1338
  5866    58.6541    13192(115)         13023.9648        11599.8340
  5867    58.6641    13220(115)         13165.2441        11601.5342
  5868    58.6741    13372(116)         13275.7207        11603.2354
  5869    58.6841    13220(115)         13351.9385        11604.9355
  5870    58.6941    13292(115)         13395.8154        11606.6357
  5871    58.7041    13232(115)         13413.2285        11608.3359
  5872    58.7141    13296(115)         13411.6162        11610.0371
  5873    58.7241    13152(115)         13398.9766        11611.7373
  5874    58.7341    13344(116)         13380.3438        11613.4375
  5875    58.7441    13136(115)         13359.2061        11615.1377
  5876    58.7541    13280(115)         13336.2070        11616.8379
  5877    58.7641    13220(115)         13310.3340        11618.5391
  5878    58.7741    13200(115)         13278.5420        11620.2393
  5879    58.7841    13200(115)         13236.8945        11621.9395
  5880    58.7941    13144(115)         13181.7686        11623.6396
  5881    58.8041    12988(114)         13109.5635        11625.3408
  5882    58.8141    12960(114)         13018.2598        11627.0410
  5883    58.8241    12892(114)         12907.7266        11628.7412
  5884    58.8341    12816(113)         12782.0889        11630.4414
  5885    58.8441    12660(113)         12651.0596        11632.1416
  5886    58.8541    12660(113)         12529.1553        11633.8428
  5887    58.8641    12508(112)         12433.0791        11635.5430
  5888    58.8741    12448(112)         12379.3135        11637.2432
  5889    58.8841    12360(111)         12383.1553        11638.9434
  5890    58.8941    12504(112)         12457.4189        11640.6445
  5891    58.9041    12504(112)         12610.8672        11642.3447
  5892    58.9141    12736(113)         12843.8486        11644.0449
  5893    58.9241    12820(113)         13148.4258        11645.7451
  5894    58.9341    13300(115)         13504.1104        11647.4453
  5895    58.9441    13816(118)         13878.4795        11649.1465
  5896    58.9541    14524(121)         14228.6260        11650.8467
  5897    58.9641    15092(123)         14505.8232        11652.5469
  5898    58.9741    15460(124)         14665.7100        11654.2471
  5899    58.9841    15368(124)         14687.7744        11655.9482
  5900    58.9941    15280(124)         14584.0449        11657.6484
  5901    59.0041    14624(121)         14395.8555        11659.3486
  5902    59.0141    14016(118)         14175.5078        11661.0488
  5903    59.0241    13540(116)         13971.1221        11662.7490
  5904    59.0341    13240(115)         13817.1631        11664.4502
  5905    59.0441    13308(115)         13729.8232        11666.1504
  5906    59.0541    13400(116)         13705.7305        11667.8506
  5907    59.0641    13516(116)         13724.8291        11669.5508
  5908    59.0741    13692(117)         13756.6514        11671.2520
  5909    59.0841    13896(118)         13771.7119        11672.9521
  5910    59.0941    14020(118)         13745.7070        11674.6523
  5911    59.1041    13888(118)         13666.3525        11676.3525
  5912    59.1141    13788(117)         13537.4287        11678.0527
  5913    59.1241    13564(116)         13376.7002        11679.7539
  5914    59.1341    13460(116)         13208.8779        11681.4541
  5915    59.1441    12992(114)         13056.9521        11683.1543
  5916    59.1541    12980(114)         12937.9004        11684.8545
  5917    59.1641    12748(113)         12860.9082        11686.5547
  5918    59.1741    12876(113)         12827.7031        11688.2559
  5919    59.1841    12972(114)         12832.8867        11689.9561
  5920    59.1941    13348(116)         12864.8340        11691.6563
  5921    59.2041    13416(116)         12907.4131        11693.3564
  5922    59.2141    13620(117)         12943.2822        11695.0576
  5923    59.2241    13652(117)         12958.8545        11696.7578
  5924    59.2341    13692(117)         12948.5557        11698.4590
  5925    59.2441    13568(116)         12914.9668        11700.1582
  5926    59.2541    13424(116)         12863.8467        11701.8584
  5927    59.2641    13156(115)         12800.0977        11703.5596
  5928    59.2741    13032(114)         12726.2363        11705.2598
  5929    59.2841    12796(113)         12641.9873        11706.9609
  5930    59.2941    12724(113)         12550.7998        11708.6602
  5931    59.3041    12364(111)         12454.5605        11710.3613
  5932    59.3141    12444(112)         12358.9951        11712.0615
  5933    59.3241    12228(111)         12269.8779        11713.7627
  5934    59.3341    12180(110)         12192.5156        11715.4629
  5935    59.3441    11896(109)         12128.6650        11717.1621
  5936    59.3541    12084(110)         12079.5830        11718.8633
  5937    59.3641    12008(110)         12044.4023        11720.5635
  5938    59.3741    12036(110)         12021.1680        11722.2646
  5939    59.3841    11952(109)         12007.5557        11723.9648
  5940    59.3941    12056(110)         12003.2070        11725.6650
  5941    59.4041    11996(110)         12007.7227        11727.3652
  5942    59.4141    11832(109)         12021.5957        11729.0654
  5943    59.4241    12000(110)         12036.6406        11722.0977
  5944    59.4341    12068(110)         12061.3213        11715.1318
  5945    59.4441    12132(110)         12094.4131        11708.1631
  5946    59.4541    12188(110)         12133.6162        11701.1982
  5947    59.4641    12076(110)         12176.0742        11694.2295
  5948    59.4741    12312(111)         12219.0068        11687.2637
  5949    59.4841    12368(111)         12260.2588        11680.2959
  5950    59.4941    12504(112)         12298.4502        11673.3301
  5951    59.5041    12512(112)         12333.9570        11666.3643
  5952    59.5141    12588(112)         12370.1621        11659.3965
  5953    59.5241    12320(111)         12412.5830        11652.4307
  5954    59.5341    12464(112)         12468.1768        11645.4629
  5955    59.5441    12452(112)         12542.7363        11638.4971
  5956    59.5541    12592(112)         12640.5781        11631.5283
  5957    59.5641    12488(112)         12764.7715        11624.5635
  5958    59.5741    12696(113)         12918.7842        11617.5947
  5959    59.5841    12720(113)         13108.0293        11610.6289
  5960    59.5941    12848(113)         13340.9766        11603.6641
  5961    59.6041    13020(114)         13626.0059        11596.6953
  5962    59.6141    13284(115)         13966.5371        11589.7295
  5963    59.6241    13696(117)         14354.2021        11582.7617
  5964    59.6341    14272(119)         14765.9980        11575.7959
  5965    59.6441    14552(121)         15164.3145        11568.8281
  5966    59.6541    15348(124)         15498.1973        11561.8623
  5967    59.6641    15624(125)         15710.8027        11554.8965
  5968    59.6741    15652(125)         15753.2090        11547.9287
  5969    59.6841    15452(124)         15606.1621        11540.9629
  5970    59.6941    15160(123)         15292.7188        11533.9941
  5971    59.7041    14360(120)         14869.7803        11527.0293
  5972    59.7141    14012(118)         14404.9043        11520.0605
  5973    59.7241    13448(116)         13959.7393        11513.0947
  5974    59.7341    13392(116)         13579.6279        11506.1270
  5975    59.7441    13024(114)         13291.4844        11499.1611
  5976    59.7541    12908(114)         13101.8125        11492.1953
  5977    59.7641    12752(113)         13000.5361        11485.2275
  5978    59.7741    12872(113)         12965.6719        11478.2617
  5979    59.7841    12876(113)         12969.6602        11471.2939
  5980    59.7941    13068(114)         12987.1211        11464.3281
  5981    59.8041    12932(114)         13001.6367        11457.3594
  5982    59.8141    13004(114)         13007.9453        11450.3945
  5983    59.8241    13060(114)         13008.8184        11443.4258
  5984    59.8341    13172(115)         13010.3691        11436.4600
  5985    59.8441    13252(115)         13019.0762        11429.4951
  5986    59.8541    13472(116)         13039.9463        11422.5264
  5987    59.8641    13492(116)         13076.6504        11415.5605
  5988    59.8741    13704(117)         13129.5957        11408.5928
  5989    59.8841    13580(117)         13198.6924        11401.6270
  5990    59.8941    13532(116)         13286.8281        11394.6592
  5991    59.9041    13492(116)         13395.8984        11387.6934
  5992    59.9141    13388(116)         13524.0830        11380.7275
  5993    59.9241    13148(115)         13661.3936        11373.7598
  5994    59.9341    13212(115)         13787.4795        11366.7939
  5995    59.9441    13232(115)         13875.3877        11359.8252
  5996    59.9541    13316(115)         13898.8984        11352.8604
  5997    59.9641    13292(115)         13842.6758        11345.8916
  5998    59.9741    13448(116)         13706.4063        11338.9258
  5999    59.9841    13380(116)         13502.5020        11331.9580
  6000    59.9941    13260(115)         13252.1094        11324.9922
  6001    60.0041    12940(114)         12980.1836        11318.0264
  6002    60.0141    12704(113)         12710.5605        11311.0586
  6003    60.0241    12452(112)         12460.5801        11304.0928
  6004    60.0341    12388(111)         12240.9141        11297.1250
  6005    60.0441    12136(110)         12055.4932        11290.1592
  6006    60.0541    12028(110)         11903.0664        11283.1904
  6007    60.0641    11800(109)         11780.1641        11276.2256
  6008    60.0741    11804(109)         11682.4570        11269.2568
  6009    60.0841    11720(108)         11605.9766        11262.2910
  6010    60.0941    11868(109)         11547.1270        11255.3262
  6011    60.1041    11604(108)         11503.0049        11248.3574
  6012    60.1141    11764(108)         11478.8633        11248.7080
  6013    60.1241    11652(108)         11466.1875        11249.0586
  6014    60.1341    11612(108)         11464.6934        11249.4092
  6015    60.1441    11672(108)         11475.5713        11249.7598
  6016    60.1541    11828(109)         11502.0469        11250.1094
  6017    60.1641    11764(108)         11547.2959        11250.4600
  6018    60.1741    11840(109)         11617.0117        11250.8105
  6019    60.1841    11816(109)         11716.0146        11251.1611
  6020    60.1941    12096(110)         11848.0352        11251.5117
  6021    60.2041    12132(110)         12012.7988        11251.8623
  6022    60.2141    12372(111)         12205.2061        11252.2129
  6023    60.2241    12564(112)         12414.0840        11252.5635
  6024    60.2341    12880(113)         12622.0908        11252.9141
  6025    60.2441    12876(113)         12806.8828        11253.2637
  6026    60.2541    13132(115)         12944.7295        11253.6143
  6027    60.2641    13048(114)         13017.4678        11253.9648
  6028    60.2741    13056(114)         13019.5527        11254.3154
  6029    60.2841    12840(113)         12961.4424        11254.6660
  6030    60.2941    12960(114)         12864.2363        11255.0166
  6031    60.3041    12768(113)         12751.5469        11255.3672
  6032    60.3141    12728(113)         12643.3975        11255.7178
  6033    60.3241    12680(113)         12553.2861        11256.0684
  6034    60.3341    12664(113)         12487.3516        11256.4180
  6035    60.3441    12484(112)         12445.9521        11256.7686
  6036    60.3541    12344(111)         12426.9502        11257.1191
  6037    60.3641    12312(111)         12430.5459        11257.4697
  6038    60.3741    12360(111)         12461.7100        11257.8203
  6039    60.3841    12368(111)         12530.0176        11258.1709
  6040    60.3941    12540(112)         12645.8672        11258.5215
  6041    60.4041    12692(113)         12815.0352        11258.8721
  6042    60.4141    12804(113)         13034.5020        11259.2227
  6043    60.4241    13012(114)         13289.5986        11259.5732
  6044    60.4341    13444(116)         13553.1084        11259.9229
  6045    60.4441    13964(118)         13788.0576        11260.2734
  6046    60.4541    14316(120)         13952.3184        11260.6240
  6047    60.4641    14452(120)         14009.7500        11260.9746
  6048    60.4741    14292(120)         13943.2852        11261.3252
  6049    60.4841    13824(118)         13762.7881        11261.6758
  6050    60.4941    13512(116)         13499.9023        11262.0264
  6051    60.5041    12992(114)         13194.4570        11262.3770
  6052    60.5141    12752(113)         12886.1924        11262.7275
  6053    60.5241    12228(111)         12605.6563        11263.0771
  6054    60.5341    12072(110)         12373.3691        11263.4277
  6055    60.5441    11884(109)         12199.1211        11263.7783
  6056    60.5541    11980(109)         12082.9658        11264.1289
  6057    60.5641    11884(109)         12017.7002        11264.4795
  6058    60.5741    12028(110)         11991.4512        11264.8301
  6059    60.5841    11928(109)         11990.9570        11265.1807
  6060    60.5941    12124(110)         12004.0186        11265.5313
  6061    60.6041    11912(109)         12021.1875        11265.8818
  6062    60.6141    11936(109)         12037.1738        11266.2314
  6063    60.6241    11936(109)         12049.5986        11266.5820
  6064    60.6341    12044(110)         12057.4941        11266.9326
  6065    60.6441    12008(110)         12060.6260        11267.2832
  6066    60.6541    12088(110)         12056.7949        11267.6338
  6067    60.6641    11968(109)         12045.3105        11267.9844
  6068    60.6741    12048(110)         12026.5986        11268.3350
  6069    60.6841    12036(110)         12002.8486        11268.6855
  6070    60.6941    12072(110)         11976.4482        11269.0361
  6071    60.7041    11900(109)         11949.4658        11269.3857
  6072    60.7141    11900(109)         11922.8584        11269.7363
  6073    60.7241    11892(109)         11896.5586        11270.0869
  6074    60.7341    11820(109)         11869.8457        11270.4375
  6075    60.7441    11752(108)         11843.2168        11270.7881
  6076    60.7541    11940(109)         11818.9150        11270.9180
  6077    60.7641    11840(109)         11802.4883        11271.0469
  6078    60.7741    11896(109)         11800.5859        11271.1768
  6079    60.7841    11904(109)         11821.8418        11271.3066
  6080    60.7941    12048(110)         11876.5547        11271.4355
  6081    60.8041    12016(110)         11975.9258        11271.5654
  6082    60.8141    12116(110)         12130.1494        11271.6953
  6083    60.8241    12180(110)         12346.0957        11271.8252
  6084    60.8341    12416(111)         12624.5596        11271.9541
  6085    60.8441    12536(112)         12957.5947        11272.0840
  6086    60.8541    13024(114)         13327.1836        11272.2139
  6087    60.8641    13592(117)         13704.4883        11272.3428
  6088    60.8741    14176(119)         14053.0547        11272.4727
  6089    60.8841    14628(121)         14332.7441        11272.6025
  6090    60.8941    15176(123)         14507.2979        11272.7314
  6091    60.9041    15200(123)         14549.9551        11272.8613
  6092    60.9141    15168(123)         14453.1387        11272.9912
  6093    60.9241    14756(121)         14233.4160        11273.1201
  6094    60.9341    14388(120)         13926.8984        11273.2500
  6095    60.9441    13744(117)         13575.1602        11273.3799
  6096    60.9541    13104(114)         13216.2764        11273.5088
  6097    60.9641    12676(113)         12878.6230        11273.6387
  6098    60.9741    12500(112)         12581.5088        11273.7686
  6099    60.9841    12200(110)         12335.5137        11273.8984
  6100    60.9941    12124(110)         12144.6777        11274.0273
  6101    61.0041    12080(110)         12008.6133        11274.1572
  6102    61.0141    12040(110)         11924.3613        11274.2871
  6103    61.0241    11852(109)         11887.5850        11274.4160
  6104    61.0341    11988(109)         11893.0566        11274.5459
  6105    61.0441    11924(109)         11934.3799        11274.6758
  6106    61.0541    12064(110)         12003.5703        11274.8047
  6107    61.0641    12036(110)         12089.9492        11274.9346
  6108    61.0741    12252(111)         12180.5693        11275.0645
  6109    61.0841    12056(110)         12260.6729        11275.1934
  6110    61.0941    12116(110)         12316.0039        11275.3232
  6111    61.1041    12064(110)         12336.5332        11275.4531
  6112    61.1141    12020(110)         12320.6924        11275.5820
  6113    61.1241    11920(109)         12276.3418        11275.7119
  6114    61.1341    12068(110)         12217.3008        11275.8418
  6115    61.1441    11936(109)         12158.2207        11275.9717
  6116    61.1541    12068(110)         12111.5371        11276.1006
  6117    61.1641    11980(109)         12085.9775        11276.2305
  6118    61.1741    12216(111)         12086.2393        11276.3604
  6119    61.1841    12068(110)         12112.8525        11276.4893
  6120    61.1941    12192(110)         12163.4961        11276.6191
  6121    61.2041    12256(111)         12234.4189        11276.7490
  6122    61.2141    12492(112)         12320.6523        11276.8779
  6123    61.2241    12576(112)         12415.9014        11277.0078
  6124    61.2341    12696(113)         12514.9580        11277.1377
  6125    61.2441    12616(112)         12608.2559        11277.2666
  6126    61.2541    12752(113)         12684.6328        11277.3965
  6127    61.2641    12688(113)         12730.9707        11277.5264
  6128    61.2741    12652(112)         12735.2119        11277.6553
  6129    61.2841    12464(112)         12691.3965        11277.7852
  6130    61.2941    12416(111)         12602.6104        11277.9150
  6131    61.3041    12312(111)         12479.8652        11278.0449
  6132    61.3141    12304(111)         12336.7910        11278.1738
  6133    61.3241    11968(109)         12187.0684        11278.3037
  6134    61.3341    12000(110)         12041.5840        11278.4336
  6135    61.3441    11832(109)         11907.8848        11278.5625
  6136    61.3541    11744(108)         11791.2930        11278.6924
  6137    61.3641    11612(108)         11694.5303        11278.8223
  6138    61.3741    11524(107)         11617.9785        11278.9512
  6139    61.3841    11444(107)         11560.3721        11279.0811
  6140    61.3941    11636(108)         11518.5195        11278.4268
  6141    61.4041    11532(107)         11490.5928        11277.7734
  6142    61.4141    11596(108)         11473.9482        11277.1191
  6143    61.4241    11500(107)         11466.5293        11276.4648
  6144    61.4341    11676(108)         11466.9355        11275.8115
  6145    61.4441    11572(108)         11475.4297        11275.1572
  6146    61.4541    11644(108)         11493.0859        11274.5039
  6147    61.4641    11536(107)         11522.4150        11273.8496
  6148    61.4741    11604(108)         11566.8076        11273.1953
  6149    61.4841    11612(108)         11630.0967        11272.5420
  6150    61.4941    11868(109)         11715.9873        11271.8877
  6151    61.5041    11856(109)         11827.3154        11271.2344
  6152    61.5141    12052(110)         11966.9424        11270.5801
  6153    61.5241    12236(111)         12134.1855        11269.9258
  6154    61.5341    12272(111)         12326.8760        11269.2725
  6155    61.5441    12492(112)         12539.5449        11268.6182
  6156    61.5541    12824(113)         12763.6152        11267.9639
  6157    61.5641    12756(113)         12987.6221        11267.3105
  6158    61.5741    13172(115)         13198.5684        11266.6563
  6159    61.5841    13528(116)         13381.2168        11266.0029
  6160    61.5941    13856(118)         13517.9482        11265.3486
  6161    61.6041    14156(119)         13590.0176        11264.6943
  6162    61.6141    14276(119)         13583.6670        11264.0410
  6163    61.6241    14136(119)         13499.4639        11263.3867
  6164    61.6341    13948(118)         13355.2100        11262.7334
  6165    61.6441    13524(116)         13184.7725        11262.0791
  6166    61.6541    13200(115)         13024.1445        11261.4248
  6167    61.6641    12888(114)         12909.2422        11260.7715
  6168    61.6741    12776(113)         12867.8350        11260.1172
  6169    61.6841    13004(114)         12916.9297        11259.4639
  6170    61.6941    13004(114)         13060.1113        11258.8096
  6171    61.7041    13300(115)         13286.0664        11258.1553
  6172    61.7141    13460(116)         13569.1689        11257.5020
  6173    61.7241    13608(117)         13871.8311        11256.8477
  6174    61.7341    13896(118)         14149.0957        11256.1934
  6175    61.7441    13880(118)         14353.6533        11255.5400
  6176    61.7541    14184(119)         14444.3047        11254.8857
  6177    61.7641    14132(119)         14397.5879        11254.2324
  6178    61.7741    14224(119)         14217.9531        11253.5781
  6179    61.7841    13996(118)         13935.4805        11252.9238
  6180    61.7941    13572(116)         13593.4395        11252.2705
  6181    61.8041    13136(115)         13234.4766        11251.6162
  6182    61.8141    12660(113)         12894.0195        11250.9629
  6183    61.8241    12304(111)         12595.7266        11250.3086
  6184    61.8341    12032(110)         12352.9971        11249.6543
  6185    61.8441    11876(109)         12167.2158        11249.0010
  6186    61.8541    11800(109)         12033.1094        11248.3467
  6187    61.8641    11672(108)         11941.4033        11247.6924
  6188    61.8741    11812(109)         11881.0801        11247.0391
  6189    61.8841    11664(108)         11841.3057        11246.3848
  6190    61.8941    11760(108)         11812.2275        11245.7305
  6191    61.9041    11572(108)         11786.1523        11245.0771
  6192    61.9141    11608(108)         11758.9766        11244.4229
  6193    61.9241    11448(107)         11728.7715        11243.7695
  6194    61.9341    11516(107)         11697.7959        11243.1152
  6195    61.9441    11592(108)         11668.0801        11242.4609
  6196    61.9541    11684(108)         11641.8389        11241.8076
  6197    61.9641    11696(108)         11620.1797        11241.1533
  6198    61.9741    11656(108)         11603.1592        11240.5000
  6199    61.9841    11692(108)         11590.2539        11239.8457
  6200    61.9941    11688(108)         11580.8926        11239.1914
  6201    62.0041    11696(108)         11575.1631        11238.5381
  6202    62.0141    11740(108)         11573.8828        11237.8838
  6203    62.0241    11688(108)         11578.2266        11237.2305
  6204    62.0341    11732(108)         11589.0488        11236.5762
  6205    62.0441    11648(108)         11608.6934        11235.9219
  6206    62.0541    11684(108)         11638.2012        11235.2686
  6207    62.0641    11764(108)         11679.4824        11234.6143
  6208    62.0741    11840(109)         11734.4688        11233.9600
  6209    62.0841    11980(109)         11804.7617        11233.3066
  6210    62.0941    12044(110)         11888.6094        11232.6523
  6211    62.1041    12148(110)         11982.7617        11231.9990
  6212    62.1141    12348(111)         12080.1494        11231.3447
  6213    62.1241    12408(111)         12171.2451        11230.6904
  6214    62.1341    12424(111)         12245.3496        11230.0371
  6215    62.1441    12344(111)         12293.7158        11229.3828
  6216    62.1541    12544(112)         12313.1475        11228.7295
  6217    62.1641    12232(111)         12309.0801        11228.0752
  6218    62.1741    12188(110)         12294.7227        11227.4209
  6219    62.1841    12164(110)         12287.4668        11226.7676
  6220    62.1941    12168(110)         12303.6582        11226.1133
  6221    62.2041    12284(111)         12355.0195        11225.4600
  6222    62.2141    12528(112)         12446.0996        11224.8057
  6223    62.2241    12504(112)         12572.7480        11224.1514
  6224    62.2341    12800(113)         12722.1738        11223.4980
  6225    62.2441    12924(114)         12874.1406        11222.8438
  6226    62.2541    13072(114)         13003.8828        11222.1895
  6227    62.2641    13052(114)         13087.4902        11221.5361
  6228    62.2741    13160(115)         13108.9189        11220.8818
  6229    62.2841    12808(113)         13065.1260        11220.2275
  6230    62.2941    12872(113)         12965.8740        11219.5742
  6231    62.3041    12672(113)         12829.0430        11218.9199
  6232    62.3141    12664(113)         12675.1270        11218.2666
  6233    62.3241    12464(112)         12522.3223        11217.6123
  6234    62.3341    12312(111)         12383.9268        11216.9580
  6235    62.3441    12120(110)         12267.6318        11216.3047
  6236    62.3541    12276(111)         12176.9092        11215.6504
  6237    62.3641    11860(109)         12113.3311        11214.9971
  6238    62.3741    12016(110)         12077.5986        11214.3428
  6239    62.3841    12000(110)         12071.4834        11213.6885
  6240    62.3941    12060(110)         12097.2588        11213.0352
  6241    62.4041    11996(110)         12157.1523        11212.3809
  6242    62.4141    12316(111)         12252.1553        11211.7275
  6243    62.4241    12336(111)         12380.3623        11211.0732
  6244    62.4341    12612(112)         12535.7568        11210.4189
  6245    62.4441    12756(113)         12708.7939        11209.7656
  6246    62.4541    13060(114)         12886.6387        11209.1113
  6247    62.4641    13072(114)         13055.4131        11208.4570
  6248    62.4741    13436(116)         13202.2021        11207.8037
  6249    62.4841    13624(117)         13316.1572        11207.1494
  6250    62.4941    13660(117)         13388.9160        11206.4961
  6251    62.5041    13472(116)         13418.5254        11205.8418
  6252    62.5141    13512(116)         13407.6348        11205.1875
  6253    62.5241    13260(115)         13364.7559        11204.5342
  6254    62.5341    13160(115)         13300.6465        11203.8799
  6255    62.5441    12944(114)         13224.8535        11203.2266
  6256    62.5541    12824(113)         13143.2109        11202.5723
  6257    62.5641    12676(113)         13058.2969        11201.9180
  6258    62.5741    12564(112)         12970.7773        11201.2646
  6259    62.5841    12440(112)         12881.1328        11200.6104
  6260    62.5941    12684(113)         12788.5830        11199.9570
  6261    62.6041    12648(112)         12690.2217        11199.3027
  6262    62.6141    12640(112)         12582.5137        11198.6484
  6263    62.6241    12600(112)         12463.8486        11197.9951
  6264    62.6341    12572(112)         12337.2275        11197.3408
  6265    62.6441    12312(111)         12209.6016        11196.6865
  6266    62.6541    12252(111)         12090.5098        11196.0332
  6267    62.6641    12048(110)         11989.6074        11195.3789
  6268    62.6741    11912(109)         11915.4268        11194.7256
  6269    62.6841    11672(108)         11874.4443        11194.0713
  6270    62.6941    11736(108)         11861.9736        11185.4600
  6271    62.7041    11752(108)         11886.4570        11176.8525
  6272    62.7141    11888(109)         11944.3955        11168.2412
  6273    62.7241    11984(109)         12029.0215        11159.6338
  6274    62.7341    12052(110)         12131.0781        11151.0234
  6275    62.7441    12108(110)         12239.4678        11142.4150
  6276    62.7541    12444(112)         12342.7705        11133.8076
  6277    62.7641    12348(111)         12431.2920        11125.1963
  6278    62.7741    12612(112)         12498.2676        11116.5889
  6279    62.7841    12644(112)         12540.6738        11107.9785
  6280    62.7941    12824(113)         12559.2217        11099.3701
  6281    62.8041    12692(113)         12557.5879        11090.7598
  6282    62.8141    12856(113)         12541.1973        11082.1514
  6283    62.8241    12700(113)         12515.5449        11073.5410
  6284    62.8341    12676(113)         12485.5391        11064.9336
  6285    62.8441    12632(112)         12455.9053        11056.3252
  6286    62.8541    12576(112)         12433.5596        11047.7148
  6287    62.8641    12412(111)         12427.1025        11039.1064
  6288    62.8741    12492(112)         12444.2520        11030.4961
  6289    62.8841    12616(112)         12489.1924        11021.8887
  6290    62.8941    12868(113)         12560.5020        11013.2773
  6291    62.9041    13024(114)         12650.0244        11004.6699
  6292    62.9141    13080(114)         12745.1563        10996.0615
  6293    62.9241    12836(113)         12828.7402        10987.4512
  6294    62.9341    13008(114)         12881.0068        10978.8438
  6295    62.9441    12660(113)         12884.1895        10970.2324
  6296    62.9541    12608(112)         12828.6641        10961.6250
  6297    62.9641    12468(112)         12717.4102        10953.0137
  6298    62.9741    12432(111)         12564.2070        10944.4063
  6299    62.9841    12492(112)         12387.1309        10935.7949
  6300    62.9941    12448(112)         12203.5625        10927.1875
  6301    63.0041    12296(111)         12027.1113        10918.5801
  6302    63.0141    12280(111)         11866.7744        10909.9688
  6303    63.0241    11964(109)         11728.5840        10901.3613
  6304    63.0341    11984(109)         11616.1846        10892.7500
  6305    63.0441    11888(109)         11531.5635        10884.1426
  6306    63.0541    11988(109)         11477.0322        10875.5313
  6307    63.0641    11776(109)         11454.2168        10866.9238
  6308    63.0741    11776(109)         11471.8574        10865.7949
  6309    63.0841    11876(109)         11523.1855        10864.6660
  6310    63.0941    12044(110)         11607.7764        10863.5371
  6311    63.1041    12140(110)         11723.2051        10862.4082
  6312    63.1141    12480(112)         11864.3242        10861.2793
  6313    63.1241    12484(112)         12023.6816        10860.1504
  6314    63.1341    12760(113)         12191.8633        10859.0215
  6315    63.1441    12936(114)         12359.4316        10857.8926
  6316    63.1541    13168(115)         12519.1758        10856.7637
  6317    63.1641    13060(114)         12670.4834        10855.6348
  6318    63.1741    13292(115)         12823.6563        10854.5059
  6319    63.1841    13204(115)         12999.9727        10853.3770
  6320    63.1941    13380(116)         13228.9395        10852.2480
  6321    63.2041    13444(116)         13541.1699        10851.1191
  6322    63.2141    13800(117)         13961.0674        10849.9902
  6323    63.2241    13784(117)         14497.1328        10848.8613
  6324    63.2341    14328(120)         15138.2656        10847.7324
  6325    63.2441    14708(121)         15846.1699        10846.6035
  6326    63.2541    15680(125)         16559.6152        10845.4746
  6327    63.2641    16724(129)         17198.6699        10844.3457
  6328    63.2741    17484(132)         17675.7793        10843.2168
  6329    63.2841    17792(133)         17915.7227        10842.0879
  6330    63.2941    17700(133)         17875.9902        10840.9590
  6331    63.3041    17108(131)         17562.0156        10839.8301
  6332    63.3141    16324(128)         17025.1523        10838.7012
  6333    63.3241    15284(124)         16342.6777        10837.5723
  6334    63.3341    14532(121)         15596.1621        10836.4434
  6335    63.3441    13796(117)         14854.3125        10835.3154
  6336    63.3541    13300(115)         14166.6973        10834.1855
  6337    63.3641    12908(114)         13564.2246        10833.0576
  6338    63.3741    12596(112)         13059.8506        10831.9277
  6339    63.3841    12564(112)         12657.1904        10830.7998
  6340    63.3941    12452(112)         12350.3418        10829.6699
  6341    63.4041    12208(110)         12130.8848        10828.5420
  6342    63.4141    12208(110)         11989.1992        10827.4131
  6343    63.4241    11972(109)         11916.2832        10826.2842
  6344    63.4341    12140(110)         11903.9482        10825.1553
  6345    63.4441    11968(109)         11944.1563        10824.0264
  6346    63.4541    12144(110)         12028.4678        10822.8975
  6347    63.4641    12200(110)         12148.0879        10821.7686
  6348    63.4741    12316(111)         12292.9629        10820.6396
  6349    63.4841    12364(111)         12454.1738        10819.5098
  6350    63.4941    12344(111)         12624.0195        10818.3818
  6351    63.5041    12248(111)         12799.5615        10817.2529
  6352    63.5141    12612(112)         12981.5654        10816.1240
  6353    63.5241    12680(113)         13171.1738        10814.9951
  6354    63.5341    13152(115)         13365.6992        10813.8662
  6355    63.5441    13324(115)         13553.6934        10812.7373
  6356    63.5541    13932(118)         13715.3262        10811.6084
  6357    63.5641    14224(119)         13824.4805        10810.4795
  6358    63.5741    14424(120)         13855.9287        10809.3506
  6359    63.5841    14356(120)         13794.6582        10808.2217
  6360    63.5941    14100(119)         13642.6084        10807.0928
  6361    63.6041    13552(116)         13417.6035        10805.9639
  6362    63.6141    13180(115)         13147.5664        10804.8350
  6363    63.6241    12632(112)         12863.1826        10803.7061
  6364    63.6341    12200(110)         12594.5146        10802.5771
  6365    63.6441    12108(110)         12367.8018        10801.4482
  6366    63.6541    12028(110)         12204.5938        10800.3193
  6367    63.6641    11872(109)         12119.7031        10799.1904
  6368    63.6741    11848(109)         12120.5889        10798.0615
  6369    63.6841    11916(109)         12206.2480        10796.9326
  6370    63.6941    12008(110)         12366.9268        10795.8037
  6371    63.7041    12396(111)         12583.6807        10794.6748
  6372    63.7141    12676(113)         12829.6182        10793.5459
  6373    63.7241    12868(113)         13070.7266        10792.4170
  6374    63.7341    13304(115)         13269.3682        10791.2881
  6375    63.7441    13260(115)         13388.9766        10790.1592
  6376    63.7541    13328(115)         13403.2129        10789.0303
  6377    63.7641    13148(115)         13305.0186        10787.9014
  6378    63.7741    12796(113)         13107.6729        10786.7725
  6379    63.7841    12544(112)         12840.2305        10785.6436
  6380    63.7941    12332(111)         12536.1826        10784.5146
  6381    63.8041    12080(110)         12226.1191        10783.3857
  6382    63.8141    11896(109)         11934.9854        10782.2568
  6383    63.8241    11740(108)         11678.8457        10781.1279
  6384    63.8341    11508(107)         11466.6631        10779.9990
  6385    63.8441    11328(106)         11299.9590        10778.8701
  6386    63.8541    11284(106)         11175.0654        10777.7412
  6387    63.8641    11264(106)         11085.6455        10776.6123
  6388    63.8741    11292(106)         11024.2578        10775.4834
  6389    63.8841    11140(106)         10984.0869        10774.3545
  6390    63.8941    11208(106)         10959.5791        10773.2256
  6391    63.9041    11152(106)         10947.8662        10772.0967
  6392    63.9141    11096(105)         10947.1016        10770.9688
  6393    63.9241    11080(105)         10957.6377        10769.8389
  6394    63.9341    11136(106)         10980.7852        10768.7109
  6395    63.9441    11128(105)         11018.7295        10767.5811
  6396    63.9541    11172(106)         11073.7969        10766.4531
  6397    63.9641    11184(106)         11147.9092        10765.3232
  6398    63.9741    11284(106)         11241.9434        10764.1953
  6399    63.9841    11308(106)         11354.7520        10763.0654
  6400    63.9941    11528(107)         11483.5596        10761.9375
  6401    64.0041    11540(107)         11623.3076        10760.8076
  6402    64.0141    11592(108)         11766.4707        10759.6797
  6403    64.0241    11436(107)         11904.1934        10758.5508
  6404    64.0341    11704(108)         12027.1855        10757.4219
  6405    64.0441    11672(108)         12128.4238        10756.2920
  6406    64.0541    11940(109)         12204.3555        10755.1641
  6407    64.0641    12024(110)         12253.9063        10754.0352
  6408    64.0741    12396(111)         12275.5859        10752.9053
  6409    64.0841    12328(111)         12266.5176        10751.7773
  6410    64.0941    12416(111)         12222.9912        10750.6484
  6411    64.1041    12188(110)         12143.7559        10749.5195
  6412    64.1141    12108(110)         12032.0664        10748.3896
  6413    64.1241    11928(109)         11896.2402        10747.2617
  6414    64.1341    11792(109)         11747.3281        10746.1328
  6415    64.1441    11564(108)         11596.5996        10745.0039
  6416    64.1541    11520(107)         11454.5186        10743.8740
  6417    64.1641    11356(107)         11329.2549        10742.7461
  6418    64.1741    11268(106)         11226.2520        10741.6172
  6419    64.1841    11228(106)         11148.7070        10740.4883
  6420    64.1941    11208(106)         11097.3848        10739.3594
  6421    64.2041    11044(105)         11071.0430        10738.2305
  6422    64.2141    11188(106)         11070.8857        10740.4482
  6423    64.2241    11236(106)         11090.1582        10742.6660
  6424    64.2341    11492(107)         11124.9561        10744.8818
  6425    64.2441    11348(107)         11171.0957        10747.1006
  6426    64.2541    11512(107)         11223.8301        10749.3184
  6427    64.2641    11584(108)         11278.3945        10751.5342
  6428    64.2741    11700(108)         11329.7861        10753.7520
  6429    64.2841    11668(108)         11373.5840        10755.9697
  6430    64.2941    11680(108)         11406.8643        10758.1875
  6431    64.3041    11672(108)         11428.3525        10760.4043
  6432    64.3141    11808(109)         11438.6387        10762.6221
  6433    64.3241    11580(108)         11440.2148        10764.8398
  6434    64.3341    11644(108)         11437.3877        10767.0557
  6435    64.3441    11608(108)         11435.3174        10769.2734
  6436    64.3541    11600(108)         11438.7266        10771.4912
  6437    64.3641    11464(107)         11450.8789        10773.7090
  6438    64.3741    11544(107)         11472.9766        10775.9258
  6439    64.3841    11612(108)         11504.0381        10778.1436
  6440    64.3941    11820(109)         11541.1064        10780.3613
  6441    64.4041    11728(108)         11580.1426        10782.5791
  6442    64.4141    11860(109)         11617.4238        10784.7949
  6443    64.4241    11652(108)         11650.8057        10787.0127
  6444    64.4341    11856(109)         11680.5059        10789.2305
  6445    64.4441    11600(108)         11709.3926        10791.4473
  6446    64.4541    11604(108)         11742.1348        10793.6650
  6447    64.4641    11656(108)         11783.6357        10795.8828
  6448    64.4741    11900(109)         11837.3330        10798.1006
  6449    64.4841    11872(109)         11903.9346        10800.3164
  6450    64.4941    11928(109)         11981.9209        10802.5342
  6451    64.5041    11748(108)         12066.6426        10804.7520
  6452    64.5141    11888(109)         12152.0137        10806.9688
  6453    64.5241    11952(109)         12232.4053        10809.1865
  6454    64.5341    11856(109)         12303.9502        10811.4043
  6455    64.5441    12092(110)         12364.8848        10813.6221
  6456    64.5541    12156(110)         12413.8496        10815.8379
  6457    64.5641    12208(110)         12448.1230        10818.0557
  6458    64.5741    12416(111)         12463.5029        10820.2734
  6459    64.5841    12464(112)         12456.2949        10822.4902
  6460    64.5941    12548(112)         12427.1758        10824.7080
  6461    64.6041    12524(112)         12384.3965        10826.9258
  6462    64.6141    12420(111)         12344.7734        10829.1436
  6463    64.6241    12160(110)         12329.7939        10831.3594
  6464    64.6341    12256(111)         12360.9570        10833.5771
  6465    64.6441    12152(110)         12455.8145        10835.7949
  6466    64.6541    12368(111)         12624.6045        10838.0127
  6467    64.6641    12520(112)         12867.2822        10840.2295
  6468    64.6741    13088(114)         13172.5176        10842.4473
  6469    64.6841    13540(116)         13516.3320        10844.6650
  6470    64.6941    14292(120)         13863.0908        10846.8809
  6471    64.7041    14528(121)         14171.5078        10849.0986
  6472    64.7141    14968(122)         14398.3076        10851.3164
  6473    64.7241    14976(122)         14507.0410        10853.5352
  6474    64.7341    14856(122)         14476.2568        10855.7510
  6475    64.7441    14388(120)         14305.9736        10857.9688
  6476    64.7541    14020(118)         14018.2412        10860.1865
  6477    64.7641    13608(117)         13649.8418        10862.4023
  6478    64.7741    13216(115)         13240.7773        10864.6201
  6479    64.7841    12692(113)         12828.5469        10866.8379
  6480    64.7941    12484(112)         12443.0342        10869.0566
  6481    64.8041    11924(109)         12105.3438        10871.2725
  6482    64.8141    11704(108)         11826.4658        10873.4902
  6483    64.8241    11384(107)         11610.6865        10875.7080
  6484    64.8341    11492(107)         11455.5361        10877.9238
  6485    64.8441    11388(107)         11354.5605        10880.1416
  6486    64.8541    11232(106)         11300.2852        10882.3604
  6487    64.8641    11172(106)         11284.6016        10884.5781
  6488    64.8741    11168(106)         11299.9570        10886.7939
  6489    64.8841    11160(106)         11339.4932        10889.0117
  6490    64.8941    11268(106)         11392.5762        10887.0898
  6491    64.9041    11312(106)         11456.8711        10885.1670
  6492    64.9141    11496(107)         11525.5225        10883.2461
  6493    64.9241    11424(107)         11591.3555        10881.3242
  6494    64.9341    11572(108)         11646.7822        10879.4023
  6495    64.9441    11792(109)         11686.6074        10877.4814
  6496    64.9541    11828(109)         11705.5957        10875.5596
  6497    64.9641    11804(109)         11703.7881        10873.6367
  6498    64.9741    11912(109)         11680.9902        10871.7148
  6499    64.9841    11768(108)         11640.6807        10869.7939
  6500    64.9941    11764(108)         11588.9834        10867.8721
  6501    65.0041    11564(108)         11534.3262        10865.9492
  6502    65.0141    11720(108)         11484.3125        10864.0283
  6503    65.0241    11492(107)         11446.2734        10862.1064
  6504    65.0341    11528(107)         11425.7549        10860.1846
  6505    65.0441    11512(107)         11426.4375        10858.2617
  6506    65.0541    11664(108)         11450.4180        10856.3418
  6507    65.0641    11508(107)         11498.9238        10854.4189
  6508    65.0741    11716(108)         11573.0527        10852.4971
  6509    65.0841    11672(108)         11673.4922        10850.5762
  6510    65.0941    11824(109)         11802.7090        10848.6543
  6511    65.1041    12032(110)         11963.6338        10846.7314
  6512    65.1141    12260(111)         12159.3965        10844.8096
  6513    65.1241    12668(113)         12391.4453        10842.8887
  6514    65.1341    13056(114)         12658.1523        10840.9668
  6515    65.1441    13276(115)         12951.6777        10839.0439
  6516    65.1541    13628(117)         13257.4297        10837.1221
  6517    65.1641    13904(118)         13553.9854        10835.2012
  6518    65.1741    14324(120)         13817.6875        10833.2793
  6519    65.1841    14220(119)         14024.5098        10831.3564
  6520    65.1941    14236(119)         14155.0479        10829.4365
  6521    65.2041    14008(118)         14195.5967        10827.5137
  6522    65.2141    13964(118)         14138.2715        10825.5918
  6523    65.2241    13696(117)         13983.6992        10823.6699
  6524    65.2341    13572(116)         13743.6270        10821.7490
  6525    65.2441    13372(116)         13439.4668        10819.8262
  6526    65.2541    13024(114)         13100.9590        10817.9043
  6527    65.2641    12672(113)         12755.1572        10815.9834
  6528    65.2741    12432(111)         12425.7568        10814.0615
  6529    65.2841    12184(110)         12130.0400        10812.1387
  6530    65.2941    11880(109)         11878.5303        10810.2168
  6531    65.3041    11720(108)         11675.1113        10808.2959
  6532    65.3141    11612(108)         11519.5664        10806.3740
  6533    65.3241    11380(107)         11408.6709        10804.4512
  6534    65.3341    11392(107)         11337.3721        10802.5313
  6535    65.3441    11204(106)         11300.4043        10800.6084
  6536    65.3541    11324(106)         11293.8223        10798.6865
  6537    65.3641    11352(107)         11315.5322        10796.7646
  6538    65.3741    11420(107)         11365.6777        10794.8438
  6539    65.3841    11420(107)         11446.3975        10792.9209
  6540    65.3941    11488(107)         11561.4141        10790.9990
  6541    65.4041    11484(107)         11712.2881        10789.0771
  6542    65.4141    12000(110)         11899.2842        10787.1563
  6543    65.4241    12056(110)         12118.8184        10785.2334
  6544    65.4341    12464(112)         12363.5488        10783.3115
  6545    65.4441    12576(112)         12620.0840        10781.3906
  6546    65.4541    12760(113)         12872.3535        10779.4688
  6547    65.4641    12864(113)         13101.2588        10777.5469
  6548    65.4741    12972(114)         13286.7080        10775.6240
  6549    65.4841    12808(113)         13412.5049        10773.7031
  6550    65.4941    12784(113)         13470.6494        10771.7813
  6551    65.5041    12852(113)         13462.9180        10769.8594
  6552    65.5141    12940(114)         13398.3369        10767.9385
  6553    65.5241    12696(113)         13287.5518        10766.0156
  6554    65.5341    12836(113)         13139.7764        10764.0938
  6555    65.5441    12752(113)         12962.3311        10762.1719
  6556    65.5541    12728(113)         12763.1846        10760.2510
  6557    65.5641    12560(112)         12551.6934        10758.3291
  6558    65.5741    12536(112)         12338.5771        10756.4063
  6559    65.5841    12036(110)         12134.9014        10754.4854
  6560    65.5941    11876(109)         11950.0098        10752.5635
  6561    65.6041    11636(108)         11792.1172        10750.6416
  6562    65.6141    11660(108)         11667.4678        10748.7188
  6563    65.6241    11512(107)         11580.1455        10746.7979
  6564    65.6341    11512(107)         11531.3252        10744.8760
  6565    65.6441    11412(107)         11519.1826        10742.9541
  6566    65.6541    11624(108)         11538.5088        10741.0313
  6567    65.6641    11796(109)         11580.8418        10739.1104
  6568    65.6741    11784(109)         11635.7188        10737.1885
  6569    65.6841    11864(109)         11690.1045        10735.2666
  6570    65.6941    11896(109)         11731.6602        10733.3457
  6571    65.7041    11780(109)         11750.1270        10731.4238
  6572    65.7141    11704(108)         11739.9619        10729.5010
  6573    65.7241    11528(107)         11701.3740        10727.5791
  6574    65.7341    11696(108)         11639.6533        10725.6582
  6575    65.7441    11412(107)         11561.7773        10723.7363
  6576    65.7541    11384(107)         11475.7207        10721.8135
  6577    65.7641    11268(106)         11389.4756        10719.8926
  6578    65.7741    11308(106)         11309.4629        10717.9707
  6579    65.7841    11276(106)         11240.8506        10716.0488
  6580    65.7941    11264(106)         11186.4160        10714.1260
  6581    65.8041    11304(106)         11146.7109        10712.2061
  6582    65.8141    11232(106)         11119.9883        10710.2832
  6583    65.8241    11112(105)         11103.3730        10708.3613
  6584    65.8341    11244(106)         11093.4395        10706.4404
  6585    65.8441    11104(105)         11086.9854        10704.5186
  6586    65.8541    11172(106)         11081.7900        10702.5957
  6587    65.8641    11128(105)         11076.8779        10700.6738
  6588    65.8741    11136(106)         11072.2354        10698.7529
  6589    65.8841    11088(105)         11068.2549        10696.8311
  6590    65.8941    11144(106)         11065.3359        10694.9082
  6591    65.9041    11156(106)         11063.3857        10692.9863
  6592    65.9141    11124(105)         11061.6348        10691.0654
  6593    65.9241    11192(106)         11058.6865        10689.1436
  6594    65.9341    11036(105)         11052.8789        10687.2207
  6595    65.9441    11060(105)         11042.7959        10685.3008
  6596    65.9541    11108(105)         11027.7910        10683.3779
  6597    65.9641    11040(105)         11008.0059        10681.4561
  6598    65.9741    11116(105)         10984.4736        10679.5342
  6599    65.9841    10952(105)         10958.6523        10677.6133
  6600    65.9941    10948(105)         10931.9600        10675.6904
  6601    66.0041    10748(104)         10906.0889        10673.7686
  6602    66.0141    11000(105)         10886.8340        10675.8467
  6603    66.0241    10944(105)         10872.2305        10677.9258
  6604    66.0341    10900(104)         10864.1270        10680.0059
  6605    66.0441    10812(104)         10864.3174        10682.0850
  6606    66.0541    10844(104)         10873.9150        10684.1631
  6607    66.0641    10860(104)         10894.0898        10686.2432
  6608    66.0741    10948(105)         10924.9453        10688.3223
  6609    66.0841    10920(104)         10966.0820        10690.4004
  6610    66.0941    11228(106)         11016.1064        10692.4795
  6611    66.1041    11120(105)         11072.4121        10694.5596
  6612    66.1141    11208(106)         11131.4531        10696.6387
  6613    66.1241    11260(106)         11188.5869        10698.7168
  6614    66.1341    11360(107)         11239.0410        10700.7959
  6615    66.1441    11420(107)         11278.1797        10702.8760
  6616    66.1541    11544(107)         11302.9727        10704.9551
  6617    66.1641    11408(107)         11312.0596        10707.0332
  6618    66.1741    11528(107)         11307.1797        10709.1133
  6619    66.1841    11380(107)         11292.0127        10711.1924
  6620    66.1941    11476(107)         11271.9277        10713.2705
  6621    66.2041    11288(106)         11253.2451        10715.3496
  6622    66.2141    11356(107)         11243.0391        10717.4297
  6623    66.2241    11296(106)         11248.9229        10719.5088
  6624    66.2341    11444(107)         11279.2461        10721.5869
  6625    66.2441    11464(107)         11342.0215        10723.6670
  6626    66.2541    11560(108)         11444.3994        10725.7461
  6627    66.2641    11588(108)         11590.7656        10727.8242
  6628    66.2741    11752(108)         11782.7051        10729.9033
  6629    66.2841    11884(109)         12016.3447        10731.9834
  6630    66.2941    12164(110)         12282.3848        10734.0625
  6631    66.3041    12260(111)         12566.2822        10736.1406
  6632    66.3141    12640(112)         12848.7090        10738.2207
  6633    66.3241    12756(113)         13106.6895        10740.2998
  6634    66.3341    13088(114)         13316.6543        10742.3779
  6635    66.3441    13152(115)         13459.1445        10744.4570
  6636    66.3541    13432(116)         13523.7285        10746.5371
  6637    66.3641    13332(115)         13513.8076        10748.6162
  6638    66.3741    13516(116)         13444.5527        10750.6943
  6639    66.3841    13280(115)         13335.8086        10752.7744
  6640    66.3941    13236(115)         13205.6621        10754.8535
  6641    66.4041    13076(114)         13066.1973        10756.9336
  6642    66.4141    12828(113)         12922.5508        10759.0107
  6643    66.4241    12680(113)         12773.9736        10761.0908
  6644    66.4341    12604(112)         12616.4102        10763.1699
  6645    66.4441    12328(111)         12446.8789        10765.2480
  6646    66.4541    12196(110)         12266.5703        10767.3281
  6647    66.4641    11824(109)         12079.9990        10769.4072
  6648    66.4741    11680(108)         11894.2969        10771.4873
  6649    66.4841    11512(107)         11717.2285        10773.5645
  6650    66.4941    11408(107)         11555.2383        10775.6445
  6651    66.5041    11332(106)         11413.8184        10777.7236
  6652    66.5141    11256(106)         11296.3076        10779.8018
  6653    66.5241    11136(106)         11203.4258        10781.8818
  6654    66.5341    11128(105)         11134.2969        10783.9609
  6655    66.5441    11020(105)         11086.2148        10786.0400
  6656    66.5541    11168(106)         11055.6553        10788.1182
  6657    66.5641    11076(105)         11038.5166        10790.1982
  6658    66.5741    11120(105)         11030.9814        10792.2773
  6659    66.5841    11084(105)         11029.7773        10794.3555
  6660    66.5941    11068(105)         11032.5586        10796.4355
  6661    66.6041    10992(105)         11038.2549        10798.5146
  6662    66.6141    11072(105)         11042.2031        10795.4902
  6663    66.6241    11048(105)         11051.4326        10792.4688
  6664    66.6341    11156(106)         11069.2344        10789.4443
  6665    66.6441    11060(105)         11100.0098        10786.4199
  6666    66.6541    11220(106)         11148.9404        10783.3955
  6667    66.6641    11084(105)         11221.7188        10780.3730
  6668    66.6741    11292(106)         11323.6396        10777.3486
  6669    66.6841    11436(107)         11458.4785        10774.3242
  6670    66.6941    11776(109)         11627.3994        10771.3027
  6671    66.7041    11924(109)         11828.5146        10768.2783
  6672    66.7141    12308(111)         12055.2158        10765.2539
  6673    66.7241    12512(112)         12296.7178        10762.2295
  6674    66.7341    12860(113)         12538.2178        10759.2070
  6675    66.7441    12964(114)         12762.4268        10756.1836
  6676    66.7541    13084(114)         12951.2070        10753.1592
  6677    66.7641    12884(114)         13089.7031        10750.1367
  6678    66.7741    12912(114)         13171.1943        10747.1123
  6679    66.7841    12592(112)         13198.0410        10744.0879
  6680    66.7941    12792(113)         13180.2529        10741.0635
  6681    66.8041    12844(113)         13129.5850        10738.0420
  6682    66.8141    13008(114)         13055.0547        10735.0176
  6683    66.8241    13000(114)         12961.0381        10731.9932
  6684    66.8341    13020(114)         12847.6396        10728.9707
  6685    66.8441    12872(113)         12713.0439        10725.9463
  6686    66.8541    12756(113)         12557.8740        10722.9229
  6687    66.8641    12332(111)         12387.6738        10719.8984
  6688    66.8741    12180(110)         12213.0459        10716.8760
  6689    66.8841    11936(109)         12046.7031        10713.8516
  6690    66.8941    11792(109)         11902.6367        10710.8271
  6691    66.9041    11692(108)         11795.2588        10707.8027
  6692    66.9141    11744(108)         11737.7842        10704.7813
  6693    66.9241    11732(108)         11742.5215        10701.7568
  6694    66.9341    11624(108)         11820.7246        10698.7324
  6695    66.9441    11748(108)         11980.5469        10695.7100
  6696    66.9541    12100(110)         12227.6055        10692.6855
  6697    66.9641    12284(111)         12562.4141        10689.6621
  6698    66.9741    12912(114)         12979.1436        10686.6377
  6699    66.9841    13276(115)         13464.2109        10683.6152
  6700    66.9941    13916(118)         13996.5674        10680.5908
  6701    67.0041    14332(120)         14545.2441        10677.5664
  6702    67.0141    14768(122)         15072.3164        10674.5449
  6703    67.0241    15092(123)         15539.0781        10671.5205
  6704    67.0341    15660(125)         15911.4941        10668.4961
  6705    67.0441    16044(127)         16167.5264        10665.4717
  6706    67.0541    16640(129)         16299.5508        10662.4492
  6707    67.0641    16852(130)         16312.9609        10659.4248
  6708    67.0741    16936(130)         16225.9785        10656.4014
  6709    67.0841    16676(129)         16070.9414        10653.3789
  6710    67.0941    16364(128)         15890.1582        10650.3545
  6711    67.1041    15668(125)         15727.5547        10647.3301
  6712    67.1141    15256(124)         15617.6699        10644.3057
  6713    67.1241    14796(122)         15578.4297        10641.2842
  6714    67.1341    14784(122)         15608.2725        10638.2598
  6715    67.1441    14916(122)         15687.2012        10635.2354
  6716    67.1541    15240(123)         15780.5254        10632.2109
  6717    67.1641    15540(125)         15846.0996        10629.1885
  6718    67.1741    16124(127)         15845.1133        10626.1641
  6719    67.1841    16064(127)         15753.4512        10623.1396
  6720    67.1941    16052(127)         15567.7734        10620.1182
  6721    67.2041    15540(125)         15302.6172        10617.0938
  6722    67.2141    15084(123)         14981.8340        10614.0693
  6723    67.2241    14512(120)         14631.0068        10611.0449
  6724    67.2341    14152(119)         14271.2461        10608.0234
  6725    67.2441    13508(116)         13918.4248        10604.9990
  6726    67.2541    13320(115)         13585.8398        10601.9746
  6727    67.2641    12888(114)         13284.7764        10598.9521
  6728    67.2741    12664(113)         13023.1514        10595.9277
  6729    67.2841    12500(112)         12805.9707        10592.9033
  6730    67.2941    12456(112)         12632.4326        10589.8789
  6731    67.3041    12396(111)         12497.6143        10586.8574
  6732    67.3141    12476(112)         12393.8135        10583.8330
  6733    67.3241    12284(111)         12312.9111        10580.8086
  6734    67.3341    12616(112)         12247.8213        10577.7871
  6735    67.3441    12336(111)         12193.6602        10574.7627
  6736    67.3541    12412(111)         12149.2354        10571.7383
  6737    67.3641    12100(110)         12117.3633        10568.7139
  6738    67.3741    12208(110)         12103.7471        10565.6914
  6739    67.3841    12108(110)         12114.3496        10562.6670
  6740    67.3941    12320(111)         12152.8154        10559.6426
  6741    67.4041    12464(112)         12218.6650        10556.6182
  6742    67.4141    12772(113)         12306.4736        10553.5967
  6743    67.4241    12884(114)         12406.2686        10550.5723
  6744    67.4341    13004(114)         12504.0986        10547.5479
  6745    67.4441    13120(115)         12584.0771        10544.5254
  6746    67.4541    13112(115)         12632.4668        10541.5020
  6747    67.4641    13100(114)         12639.0723        10538.4775
  6748    67.4741    13064(114)         12602.7080        10535.4531
  6749    67.4841    12772(113)         12530.3711        10532.4307
  6750    67.4941    12836(113)         12433.9961        10529.4063
  6751    67.5041    12696(113)         12326.4111        10526.3818
  6752    67.5141    12648(112)         12217.6602        10523.3604
  6753    67.5241    12468(112)         12113.2422        10520.3359
  6754    67.5341    12308(111)         12014.4414        10517.3115
  6755    67.5441    12288(111)         11918.0654        10514.2871
  6756    67.5541    12228(111)         11820.4131        10511.2646
  6757    67.5641    12120(110)         11718.2227        10508.2412
  6758    67.5741    11924(109)         11611.8047        10505.2168
  6759    67.5841    11784(109)         11503.9326        10502.1943
  6760    67.5941    11580(108)         11398.6709        10499.1699
  6761    67.6041    11460(107)         11300.2900        10496.1455
  6762    67.6141    11440(107)         11212.5176        10493.1211
  6763    67.6241    11252(106)         11138.1240        10490.0996
  6764    67.6341    11252(106)         11078.5479        10487.0752
  6765    67.6441    11280(106)         11034.4609        10484.0508
  6766    67.6541    11384(107)         11005.6611        10481.0264
  6767    67.6641    11328(106)         10991.3809        10478.0039
  6768    67.6741    11428(107)         10990.4531        10474.9805
  6769    67.6841    11364(107)         11001.6680        10471.9561
  6770    67.6941    11472(107)         11023.7578        10468.9336
  6771    67.7041    11460(107)         11055.6172        10465.9092
  6772    67.7141    11432(107)         11095.8682        10462.8848
  6773    67.7241    11388(107)         11142.9463        10459.8604
  6774    67.7341    11444(107)         11195.1719        10456.8389
  6775    67.7441    11352(107)         11251.3809        10453.8145
  6776    67.7541    11380(107)         11311.3613        10450.7900
  6777    67.7641    11412(107)         11376.3242        10447.7676
  6778    67.7741    11588(108)         11448.7607        10444.7432
  6779    67.7841    11512(107)         11530.5664        10441.7188
  6780    67.7941    11640(108)         11622.3457        10438.6953
  6781    67.8041    11488(107)         11722.2793        10435.6729
  6782    67.8141    11712(108)         11826.4375        10432.6484
  6783    67.8241    11664(108)         11928.6602        10429.6240
  6784    67.8341    11960(109)         12021.5957        10426.6025
  6785    67.8441    11936(109)         12098.4590        10423.5781
  6786    67.8541    12148(110)         12154.9160        10420.5537
  6787    67.8641    11968(109)         12191.2178        10417.5293
  6788    67.8741    12164(110)         12212.7813        10414.5068
  6789    67.8841    12208(110)         12228.2832        10411.4824
  6790    67.8941    12128(110)         12246.4932        10408.4580
  6791    67.9041    11908(109)         12273.2383        10405.4346
  6792    67.9141    12060(110)         12309.5332        10402.4121
  6793    67.9241    11912(109)         12351.2178        10399.3877
  6794    67.9341    12116(110)         12389.5791        10396.3633
  6795    67.9441    12184(110)         12413.2490        10393.3418
  6796    67.9541    12300(111)         12411.6006        10390.3174
  6797    67.9641    12212(111)         12378.6475        10387.2930
  6798    67.9741    12260(111)         12315.9551        10384.2686
  6799    67.9841    11948(109)         12232.2041        10381.2461
  6800    67.9941    11780(109)         12139.4170        10378.2217
  6801    68.0041    11660(108)         12049.4775        10375.1973
  6802    68.0141    11568(108)         11971.1475        10372.1758
  6803    68.0241    11312(106)         11908.3838        10369.1514
  6804    68.0341    11512(107)         11860.2051        10366.1270
  6805    68.0441    11312(106)         11820.9043        10363.1025
  6806    68.0541    11404(107)         11781.8086        10360.0811
  6807    68.0641    11480(107)         11733.7783        10357.0566
  6808    68.0741    11564(108)         11670.1729        10354.0322
  6809    68.0841    11360(107)         11588.1641        10351.0098
  6810    68.0941    11316(106)         11489.0293        10347.9854
  6811    68.1041    11240(106)         11377.3945        10344.9609
  6812    68.1141    11136(106)         11261.3496        10341.9365
  6813    68.1241    11024(105)         11148.3037        10338.9150
  6814    68.1341    10944(105)         11044.9072        10335.8906
  6815    68.1441    10720(104)         10956.3115        10332.8662
  6816    68.1541    10868(104)         10890.7627        10335.0703
  6817    68.1641    10812(104)         10844.1973        10337.2725
  6818    68.1741    10900(104)         10816.2031        10339.4766
  6819    68.1841    10812(104)         10805.5547        10341.6807
  6820    68.1941    10984(105)         10810.5811        10343.8828
  6821    68.2041    10936(105)         10829.5049        10346.0869
  6822    68.2141    11000(105)         10861.7715        10348.2910
  6823    68.2241    11016(105)         10906.8486        10350.4951
  6824    68.2341    11156(106)         10964.7305        10352.6973
  6825    68.2441    11092(105)         11035.0742        10354.9014
  6826    68.2541    11212(106)         11116.1768        10357.1055
  6827    68.2641    11244(106)         11204.6631        10359.3076
  6828    68.2741    11276(106)         11295.6133        10361.5117
  6829    68.2841    11360(107)         11382.4434        10363.7158
  6830    68.2941    11596(108)         11458.0928        10365.9199
  6831    68.3041    11628(108)         11515.8027        10368.1221
  6832    68.3141    11620(108)         11551.0918        10370.3262
  6833    68.3241    11484(107)         11561.6670        10372.5303
  6834    68.3341    11480(107)         11547.5352        10374.7324
  6835    68.3441    11380(107)         11510.2773        10376.9365
  6836    68.3541    11452(107)         11452.5684        10379.1406
  6837    68.3641    11312(106)         11377.8135        10381.3447
  6838    68.3741    11288(106)         11290.2246        10383.5469
  6839    68.3841    11120(105)         11194.4414        10385.7510
  6840    68.3941    11172(106)         11095.7900        10387.9551
  6841    68.4041    10972(105)         10999.5771        10390.1592
  6842    68.4141    10876(104)         10910.6865        10392.3613
  6843    68.4241    10884(104)         10833.0195        10394.5654
  6844    68.4341    10832(104)         10769.7969        10396.7695
  6845    68.4441    10668(103)         10723.3857        10398.9717
  6846    68.4541    10628(103)         10695.3789        10401.1758
  6847    68.4641    10568(103)         10687.0244        10403.3799
  6848    68.4741    10624(103)         10695.2744        10401.7803
  6849    68.4841    10756(104)         10724.2441        10400.1816
  6850    68.4941    10828(104)         10773.7646        10398.5811
  6851    68.5041    10876(104)         10842.8672        10396.9814
  6852    68.5141    10904(104)         10929.5313        10395.3828
  6853    68.5241    10980(105)         11030.6914        10393.7822
  6854    68.5341    11244(106)         11141.7373        10392.1826
  6855    68.5441    11328(106)         11256.3428        10390.5830
  6856    68.5541    11568(108)         11368.1367        10388.9844
  6857    68.5641    11644(108)         11469.9258        10387.3838
  6858    68.5741    11692(108)         11555.6436        10385.7842
  6859    68.5841    11596(108)         11620.9941        10384.1855
  6860    68.5941    11720(108)         11663.6709        10382.5850
  6861    68.6041    11524(107)         11682.4355        10380.9854
  6862    68.6141    11516(107)         11678.5615        10379.3857
  6863    68.6241    11312(106)         11655.0703        10377.7871
  6864    68.6341    11320(106)         11616.8594        10376.1865
  6865    68.6441    11280(106)         11568.0664        10374.5869
  6866    68.6541    11244(106)         11512.0918        10372.9873
  6867    68.6641    11252(106)         11451.2773        10371.3887
  6868    68.6741    11216(106)         11386.9580        10369.7881
  6869    68.6841    11216(106)         11319.3477        10368.1885
  6870    68.6941    11320(106)         11248.5400        10366.5898
  6871    68.7041    11216(106)         11174.5850        10364.9893
  6872    68.7141    11180(106)         11099.1367        10363.3896
  6873    68.7241    11024(105)         11025.4541        10361.7900
  6874    68.7341    11028(105)         10958.0547        10360.1914
  6875    68.7441    10916(104)         10901.6924        10358.5908
  6876    68.7541    10928(105)         10861.1494        10356.9912
  6877    68.7641    10708(103)         10840.5244        10355.3926
  6878    68.7741    10836(104)         10842.8643        10353.7920
  6879    68.7841    10772(104)         10869.9297        10352.1924
  6880    68.7941    10952(105)         10921.6670        10350.5928
  6881    68.8041    10976(105)         10995.8633        10348.9941
  6882    68.8141    11084(105)         11087.5332        10347.3936
  6883    68.8241    11200(106)         11190.7461        10345.7939
  6884    68.8341    11380(107)         11296.1035        10344.1953
  6885    68.8441    11692(108)         11393.3037        10342.5957
  6886    68.8541    11876(109)         11471.1621        10340.9951
  6887    68.8641    11940(109)         11520.7295        10339.3955
  6888    68.8741    11916(109)         11535.4297        10337.7969
  6889    68.8841    11844(109)         11514.6484        10336.1963
  6890    68.8941    11848(109)         11463.5127        10334.5967
  6891    68.9041    11656(108)         11391.1055        10332.9971
  6892    68.9141    11388(107)         11308.0918        10331.3984
  6893    68.9241    11216(106)         11224.5898        10329.7979
  6894    68.9341    11176(106)         11149.4805        10328.1982
  6895    68.9441    10924(105)         11089.6465        10326.5996
  6896    68.9541    10908(104)         11049.3145        10324.9990
  6897    68.9641    10900(104)         11029.4941        10323.3994
  6898    68.9741    11004(105)         11029.7588        10321.7998
  6899    68.9841    10996(105)         11045.7051        10320.2012
  6900    68.9941    11132(106)         11070.8223        10318.6006
  6901    69.0041    10976(105)         11097.3135        10317.0010
  6902    69.0141    11124(105)         11117.1094        10315.4023
  6903    69.0241    11180(106)         11123.3633        10313.8027
  6904    69.0341    11244(106)         11111.5547        10312.2021
  6905    69.0441    11080(105)         11081.0840        10310.6025
  6906    69.0541    11140(106)         11033.6963        10309.0039
  6907    69.0641    11020(105)         10973.4570        10307.4033
  6908    69.0741    10920(104)         10905.8750        10305.8037
  6909    69.0841    10808(104)         10836.8223        10304.2051
  6910    69.0941    10744(104)         10771.4902        10302.6055
  6911    69.1041    10664(103)         10713.9336        10301.0049
  6912    69.1141    10756(104)         10666.9834        10299.4053
  6913    69.1241    10624(103)         10631.8594        10297.8066
  6914    69.1341    10732(104)         10608.5996        10296.2061
  6915    69.1441    10680(103)         10596.4189        10294.6064
  6916    69.1541    10676(103)         10594.6445        10293.0068
  6917    69.1641    10644(103)         10602.3740        10291.4082
  6918    69.1741    10764(104)         10619.7383        10289.8076
  6919    69.1841    10620(103)         10648.1123        10288.2080
  6920    69.1941    10800(104)         10690.3467        10286.6094
  6921    69.2041    10832(104)         10750.7246        10285.0098
  6922    69.2141    10848(104)         10834.0215        10283.4092
  6923    69.2241    10868(104)         10944.7275        10281.8096
  6924    69.2341    11056(105)         11085.8643        10280.2109
  6925    69.2441    11068(105)         11258.7373        10278.6104
  6926    69.2541    11392(107)         11461.3711        10277.0107
  6927    69.2641    11604(108)         11688.3643        10275.4121
  6928    69.2741    11892(109)         11932.4561        10273.8125
  6929    69.2841    12156(110)         12182.3379        10272.2119
  6930    69.2941    12352(111)         12425.3203        10270.6123
  6931    69.3041    12360(111)         12648.6621        10269.0137
  6932    69.3141    12644(112)         12843.1240        10267.4131
  6933    69.3241    12728(113)         13003.9648        10265.8135
  6934    69.3341    12892(114)         13131.6992        10264.2148
  6935    69.3441    13000(114)         13229.1230        10262.6152
  6936    69.3541    13032(114)         13297.4648        10261.0146
  6937    69.3641    13032(114)         13335.2910        10259.4150
  6938    69.3741    13112(115)         13337.3691        10257.8164
  6939    69.3841    13140(115)         13296.6680        10256.2168
  6940    69.3941    13064(114)         13207.5400        10254.6162
  6941    69.4041    12892(114)         13068.7715        10253.0166
  6942    69.4141    12916(114)         12885.3066        10251.4180
  6943    69.4241    12504(112)         12666.7754        10249.8174
  6944    69.4341    12608(112)         12425.8174        10248.2178
  6945    69.4441    12348(111)         12175.6299        10246.6191
  6946    69.4541    12212(111)         11927.7002        10245.0195
  6947    69.4641    11776(109)         11692.1699        10243.4189
  6948    69.4741    11532(107)         11476.7510        10241.8193
  6949    69.4841    11296(106)         11286.8564        10240.2207
  6950    69.4941    11160(106)         11125.3174        10238.6201
  6951    69.5041    11040(105)         10993.4902        10237.0205
  6952    69.5141    10984(105)         10891.1279        10235.4219
  6953    69.5241    10832(104)         10816.3262        10233.8223
  6954    69.5341    10852(104)         10766.7500        10232.2217
  6955    69.5441    10748(104)         10739.2998        10230.6221
  6956    69.5541    10864(104)         10730.4072        10229.0234
  6957    69.5641    10832(104)         10736.4121        10227.4238
  6958    69.5741    10856(104)         10753.3740        10225.8232
  6959    69.5841    10836(104)         10777.6221        10224.2246
  6960    69.5941    10916(104)         10806.0068        10222.6250
  6961    69.6041    10872(104)         10835.8721        10221.0244
  6962    69.6141    10820(104)         10865.0889        10219.4248
  6963    69.6241    10772(104)         10891.9473        10217.8262
  6964    69.6341    10716(104)         10915.4688        10216.2266
  6965    69.6441    10732(104)         10935.8105        10214.6260
  6966    69.6541    10824(104)         10954.4805        10213.0264
  6967    69.6641    10908(104)         10974.3975        10211.4277
  6968    69.6741    10928(105)         10998.0137        10209.8271
  6969    69.6841    11000(105)         11027.3301        10208.2275
  6970    69.6941    11088(105)         11061.6816        10206.6289
  6971    69.7041    11052(105)         11099.2471        10205.0293
  6972    69.7141    11044(105)         11136.2900        10203.4287
  6973    69.7241    11108(105)         11168.2490        10201.8291
  6974    69.7341    11272(106)         11190.2861        10200.2305
  6975    69.7441    11192(106)         11198.0781        10198.6309
  6976    69.7541    11148(106)         11188.0986        10197.0303
  6977    69.7641    10904(104)         11158.1094        10195.4316
  6978    69.7741    11004(105)         11107.9443        10193.8320
  6979    69.7841    10764(104)         11040.7705        10192.2314
  6980    69.7941    10848(104)         10961.3564        10190.6318
  6981    69.8041    10652(103)         10875.7178        10189.0332
  6982    69.8141    10776(104)         10789.4521        10187.4336
  6983    69.8241    10616(103)         10707.3652        10185.8330
  6984    69.8341    10640(103)         10632.9121        10184.2344
  6985    69.8441    10504(102)         10568.1221        10182.6348
  6986    69.8541    10660(103)         10514.0605        10181.0342
  6987    69.8641    10556(103)         10470.8516        10179.4346
  6988    69.8741    10620(103)         10437.8936        10177.8359
  6989    69.8841    10600(103)         10414.2549        10176.2363
  6990    69.8941    10604(103)         10398.4854        10174.6357
  6991    69.9041    10500(102)         10389.0225        10173.0361
  6992    69.9141    10608(103)         10401.7764        10188.7363
  6993    69.9241    10592(103)         10417.8096        10204.4492
  6994    69.9341    10664(103)         10435.7549        10220.1621
  6995    69.9441    10532(103)         10453.9395        10235.8623
  6996    69.9541    10608(103)         10471.5332        10251.5752
  6997    69.9641    10476(102)         10488.0137        10267.2871
  6998    69.9741    10640(103)         10503.4590        10283.0000
  6999    69.9841    10528(103)         10518.4023        10298.7012
  7000    69.9941    10596(103)         10533.8359        10314.4131
  7001    70.0041    10520(103)         10550.9512        10330.1260
  7002    70.0141    10556(103)         10571.0596        10345.8262
  7003    70.0241    10384(102)         10595.3828        10361.5391
  7004    70.0341    10576(103)         10608.5645        10360.9658
  7005    70.0441    10584(103)         10627.4443        10360.3926
  7006    70.0541    10768(104)         10652.0605        10359.8193
  7007    70.0641    10736(104)         10682.0605        10359.2461
  7008    70.0741    10740(104)         10716.6123        10358.6729
  7009    70.0841    10724(104)         10754.5693        10358.0996
  7010    70.0941    10964(105)         10794.8057        10357.5264
  7011    70.1041    10956(105)         10836.1895        10356.9521
  7012    70.1141    10940(105)         10877.5928        10356.3789
  7013    70.1241    10988(105)         10917.6035        10355.8066
  7014    70.1341    11112(105)         10954.0801        10355.2324
  7015    70.1441    11148(106)         10984.2461        10354.6592
  7016    70.1541    11220(106)         11004.4727        10354.0859
  7017    70.1641    11220(106)         11011.3340        10353.5127
  7018    70.1741    11272(106)         11002.3242        10352.9395
  7019    70.1841    11192(106)         10976.7803        10352.3662
  7020    70.1941    11148(106)         10936.8672        10351.7930
  7021    70.2041    10884(104)         10886.1973        10351.2197
  7022    70.2141    10820(104)         10829.6787        10350.6465
  7023    70.2241    10756(104)         10772.0625        10350.0732
  7024    70.2341    10820(104)         10717.5117        10349.5000
  7025    70.2441    10668(103)         10669.1104        10348.9268
  7026    70.2541    10720(104)         10628.9063        10348.3525
  7027    70.2641    10568(103)         10597.7266        10347.7803
  7028    70.2741    10624(103)         10575.2383        10347.2070
  7029    70.2841    10432(102)         10560.3359        10346.6328
  7030    70.2941    10588(103)         10551.3760        10346.0596
  7031    70.3041    10608(103)         10546.5850        10345.4863
  7032    70.3141    10672(103)         10544.3477        10344.9131
  7033    70.3241    10516(103)         10543.4922        10344.3398
  7034    70.3341    10528(103)         10543.5000        10343.7666
  7035    70.3441    10564(103)         10544.6934        10343.1934
  7036    70.3541    10736(104)         10548.2627        10342.6201
  7037    70.3641    10516(103)         10556.1846        10342.0469
  7038    70.3741    10524(103)         10571.0000        10341.4736
  7039    70.3841    10524(103)         10595.4570        10340.9004
  7040    70.3941    10516(103)         10632.0869        10340.3271
  7041    70.4041    10472(102)         10683.1074        10339.7539
  7042    70.4141    10684(103)         10749.4688        10339.1807
  7043    70.4241    10608(103)         10831.1045        10338.6074
  7044    70.4341    10772(104)         10926.3496        10338.0332
  7045    70.4441    10744(104)         11031.7969        10337.4609
  7046    70.4541    10968(105)         11143.3174        10336.8877
  7047    70.4641    11076(105)         11254.7607        10336.3135
  7048    70.4741    11168(106)         11359.6982        10335.7402
  7049    70.4841    11028(105)         11451.8701        10335.1670
  7050    70.4941    11264(106)         11526.7881        10334.5938
  7051    70.5041    11156(106)         11582.6465        10334.0205
  7052    70.5141    11340(106)         11620.1426        10333.4473
  7053    70.5241    11340(106)         11641.5410        10332.8740
  7054    70.5341    11536(107)         11648.8574        10332.3008
  7055    70.5441    11408(107)         11642.9629        10331.7275
  7056    70.5541    11668(108)         11623.8047        10331.1543
  7057    70.5641    11532(107)         11590.5605        10330.5811
  7058    70.5741    11612(108)         11543.3008        10330.0078
  7059    70.5841    11528(107)         11483.8877        10329.4346
  7060    70.5941    11536(107)         11415.9170        10328.8613
  7061    70.6041    11252(106)         11344.1553        10328.2881
  7062    70.6141    11152(106)         11273.4502        10327.7139
  7063    70.6241    10812(104)         11207.8838        10327.1416
  7064    70.6341    10936(105)         11150.0420        10326.5684
  7065    70.6441    10880(104)         11101.0762        10325.9941
  7066    70.6541    11016(105)         11060.5449        10325.4209
  7067    70.6641    10924(105)         11026.7402        10324.8477
  7068    70.6741    10996(105)         10996.9521        10324.2744
  7069    70.6841    10924(105)         10967.9941        10323.7012
  7070    70.6941    11012(105)         10936.7461        10323.1279
  7071    70.7041    10936(105)         10900.6699        10322.5547
  7072    70.7141    10908(104)         10858.4922        10321.9814
  7073    70.7241    10804(104)         10811.0469        10321.4082
  7074    70.7341    10832(104)         10760.0615        10320.8350
  7075    70.7441    10624(103)         10708.0039        10320.2617
  7076    70.7541    10596(103)         10657.4033        10319.6885
  7077    70.7641    10684(103)         10610.4580        10319.1152
  7078    70.7741    10740(104)         10568.6367        10318.5420
  7079    70.7841    10588(103)         10532.6963        10317.9688
  7080    70.7941    10548(103)         10502.8408        10317.3945
  7081    70.8041    10384(102)         10478.6230        10316.8223
  7082    70.8141    10428(102)         10459.2363        10316.2480
  7083    70.8241    10456(102)         10443.8516        10315.6748
  7084    70.8341    10528(103)         10431.6123        10315.1025
  7085    70.8441    10452(102)         10421.9268        10314.5283
  7086    70.8541    10468(102)         10414.4111        10313.9551
  7087    70.8641    10252(101)         10408.8809        10313.3818
  7088    70.8741    10452(102)         10406.0850        10313.7480
  7089    70.8841    10324(102)         10405.3721        10314.1152
  7090    70.8941    10440(102)         10406.8135        10314.4814
  7091    70.9041    10420(102)         10410.6318        10314.8477
  7092    70.9141    10464(102)         10417.1670        10315.2148
  7093    70.9241    10324(102)         10426.6074        10315.5811
  7094    70.9341    10560(103)         10439.0586        10315.9482
  7095    70.9441    10528(103)         10454.4414        10316.3145
  7096    70.9541    10584(103)         10472.4912        10316.6807
  7097    70.9641    10560(103)         10492.6523        10317.0479
  7098    70.9741    10568(103)         10514.1152        10317.4141
  7099    70.9841    10608(103)         10535.8086        10317.7803
  7100    70.9941    10568(103)         10556.5723        10318.1475
  7101    71.0041    10516(103)         10575.2168        10318.5137
  7102    71.0141    10576(103)         10590.8184        10318.8799
  7103    71.0241    10688(103)         10602.8604        10319.2471
  7104    71.0341    10624(103)         10611.1074        10319.6133
  7105    71.0441    10712(103)         10615.5674        10319.9805
  7106    71.0541    10716(104)         10616.2324        10320.3467
  7107    71.0641    10596(103)         10613.2197        10320.7129
  7108    71.0741    10648(103)         10606.8838        10321.0801
  7109    71.0841    10624(103)         10598.1953        10321.4463
  7110    71.0941    10708(103)         10588.6602        10321.8125
  7111    71.1041    10512(103)         10580.3193        10322.1797
  7112    71.1141    10524(103)         10575.2031        10322.5459
  7113    71.1241    10608(103)         10575.5811        10322.9121
  7114    71.1341    10556(103)         10583.5020        10323.2793
  7115    71.1441    10376(102)         10600.6035        10323.6455
  7116    71.1541    10540(103)         10628.1045        10324.0127
  7117    71.1641    10776(104)         10666.5137        10324.3789
  7118    71.1741    10752(104)         10715.3760        10324.7451
  7119    71.1841    10796(104)         10774.2148        10325.1123
  7120    71.1941    10920(104)         10840.8232        10325.4785
  7121    71.2041    11040(105)         10912.6826        10325.8447
  7122    71.2141    11256(106)         10986.4023        10326.2119
  7123    71.2241    11332(106)         11058.2129        10326.5781
  7124    71.2341    11464(107)         11124.6797        10326.9443
  7125    71.2441    11604(108)         11183.2422        10327.3115
  7126    71.2541    11540(107)         11231.8818        10327.6777
  7127    71.2641    11472(107)         11270.1816        10328.0439
  7128    71.2741    11456(107)         11297.3730        10328.4111
  7129    71.2841    11360(107)         11313.5156        10328.7773
  7130    71.2941    11280(106)         11318.6504        10329.1445
  7131    71.3041    11324(106)         11313.7881        10329.5107
  7132    71.3141    11228(106)         11300.8516        10329.8770
  7133    71.3241    11136(106)         11282.5146        10330.2441
  7134    71.3341    11180(106)         11261.5938        10330.6104
  7135    71.3441    11048(105)         11240.5029        10330.9766
  7136    71.3541    11244(106)         11221.0293        10331.3438
  7137    71.3641    11148(106)         11204.2969        10331.7100
  7138    71.3741    11172(106)         11190.4668        10332.0762
  7139    71.3841    11248(106)         11178.6279        10332.4434
  7140    71.3941    11228(106)         11166.9658        10332.8096
  7141    71.4041    11108(105)         11153.1172        10333.1768
  7142    71.4141    11212(106)         11134.6992        10333.5430
  7143    71.4241    11204(106)         11109.6748        10333.9092
  7144    71.4341    11272(106)         11076.8301        10334.2764
  7145    71.4441    11356(107)         11036.2529        10334.6426
  7146    71.4541    11300(106)         10989.6670        10335.0088
  7147    71.4641    11168(106)         10940.5391        10335.3760
  7148    71.4741    11100(105)         10893.4063        10335.7422
  7149    71.4841    11052(105)         10853.3164        10336.1084
  7150    71.4941    11036(105)         10825.5186        10336.4756
  7151    71.5041    10844(104)         10814.3838        10336.8418
  7152    71.5141    11020(105)         10824.2744        10337.2080
  7153    71.5241    10708(103)         10858.2998        10337.5752
  7154    71.5341    10904(104)         10917.9561        10337.9414
  7155    71.5441    10892(104)         11002.9648        10338.3086
  7156    71.5541    11060(105)         11110.6816        10338.6748
  7157    71.5641    11012(105)         11236.3379        10339.0410
  7158    71.5741    11196(106)         11372.5635        10339.4082
  7159    71.5841    11284(106)         11509.8320        10339.7744
  7160    71.5941    11624(108)         11637.3662        10340.1406
  7161    71.6041    11716(108)         11743.6982        10340.5078
  7162    71.6141    12064(110)         11818.5742        10340.8740
  7163    71.6241    12156(110)         11855.3535        10341.2402
  7164    71.6341    12144(110)         11852.1055        10341.6074
  7165    71.6441    12028(110)         11811.2988        10341.9736
  7166    71.6541    11912(109)         11739.0234        10342.3408
  7167    71.6641    11608(108)         11643.1553        10342.7070
  7168    71.6741    11444(107)         11532.7461        10343.0732
  7169    71.6841    11084(105)         11417.6816        10343.4404
  7170    71.6941    10980(105)         11307.5693        10343.8066
  7171    71.7041    10960(105)         11210.5088        10344.1729
  7172    71.7141    10880(104)         11132.8887        10344.5400
  7173    71.7241    10732(104)         11078.7383        10344.9063
  7174    71.7341    10916(104)         11049.9307        10345.2725
  7175    71.7441    10984(105)         11046.2871        10345.6396
  7176    71.7541    10900(104)         11066.1416        10346.0059
  7177    71.7641    10924(105)         11106.5820        10346.3721
  7178    71.7741    11088(105)         11164.0713        10346.7393
  7179    71.7841    10988(105)         11234.3994        10347.1055
  7180    71.7941    11184(106)         11312.7998        10347.4727
  7181    71.8041    11128(105)         11393.7852        10347.8389
  7182    71.8141    11344(107)         11471.8281        10348.2051
  7183    71.8241    11288(106)         11541.4443        10348.5723
  7184    71.8341    11544(107)         11597.8379        10348.9385
  7185    71.8441    11708(108)         11637.0586        10349.3047
  7186    71.8541    11836(109)         11655.4473        10349.6719
  7187    71.8641    11752(108)         11650.0996        10350.0381
  7188    71.8741    11908(109)         11619.6904        10350.4043
  7189    71.8841    11760(108)         11565.4404        10350.7715
  7190    71.8941    11756(108)         11491.5078        10351.1377
  7191    71.9041    11476(107)         11404.0605        10351.5049
  7192    71.9141    11360(107)         11309.9219        10351.8711
  7193    71.9241    11188(106)         11214.9951        10352.2373
  7194    71.9341    11200(106)         11124.2510        10352.6045
  7195    71.9441    11000(105)         11041.1475        10352.9707
  7196    71.9541    10844(104)         10967.5029        10353.3369
  7197    71.9641    10804(104)         10904.1113        10353.7041
  7198    71.9741    10864(104)         10850.9160        10354.0703
  7199    71.9841    10764(104)         10807.7012        10354.4365
  7200    71.9941    10824(104)         10774.3535        10354.8037
  7201    72.0041    10620(103)         10751.1748        10355.1699
  7202    72.0141    10684(103)         10738.7197        10355.5371
  7203    72.0241    10668(103)         10737.5420        10355.9033
  7204    72.0341    10692(103)         10748.0791        10356.2695
  7205    72.0441    10748(104)         10770.2813        10356.6367
  7206    72.0541    10716(104)         10803.4189        10357.0029
  7207    72.0641    10792(104)         10845.9033        10357.3691
  7208    72.0741    10912(104)         10895.3564        10357.7363
  7209    72.0841    10932(105)         10948.1211        10358.1025
  7210    72.0941    11108(105)         11000.1836        10358.4688
  7211    72.1041    11052(105)         11046.9834        10358.8359
  7212    72.1141    11052(105)         11084.0244        10359.2021
  7213    72.1241    11044(105)         11107.4082        10359.5693
  7214    72.1341    11208(106)         11114.5693        10359.9355
  7215    72.1441    11188(106)         11104.6924        10360.3018
  7216    72.1541    11284(106)         11079.0752        10360.6689
  7217    72.1641    11100(105)         11040.7334        10361.0352
  7218    72.1741    11160(106)         10994.0576        10361.4014
  7219    72.1841    10976(105)         10944.0527        10361.7686
  7220    72.1941    10996(105)         10895.4844        10362.1348
  7221    72.2041    10876(104)         10852.0352        10362.5020
  7222    72.2141    10892(104)         10816.3750        10362.8682
  7223    72.2241    10776(104)         10789.8467        10363.2344
  7224    72.2341    10768(104)         10772.3604        10363.6016
  7225    72.2441    10600(103)         10762.9326        10363.9678
  7226    72.2541    10880(104)         10759.9707        10364.3340
  7227    72.2641    10784(104)         10761.4307        10364.7012
  7228    72.2741    10860(104)         10765.8965        10365.0674
  7229    72.2841    10864(104)         10772.5830        10365.4336
  7230    72.2941    10800(104)         10781.5645        10365.8008
  7231    72.3041    10800(104)         10793.4697        10366.1670
  7232    72.3141    10776(104)         10809.1689        10366.5342
  7233    72.3241    10852(104)         10829.4023        10366.9004
  7234    72.3341    10796(104)         10854.5977        10367.2666
  7235    72.3441    10788(104)         10884.7471        10367.6338
  7236    72.3541    10892(104)         10919.1387        10368.0000
  7237    72.3641    10856(104)         10956.2002        10368.3662
  7238    72.3741    11028(105)         10993.3779        10368.7334
  7239    72.3841    10908(104)         11027.4072        10369.0996
  7240    72.3941    11164(106)         11054.4053        10369.4658
  7241    72.4041    11016(105)         11071.2227        10369.8330
  7242    72.4141    11172(106)         11075.2881        10370.1992
  7243    72.4241    11040(105)         11065.7930        10370.5664
  7244    72.4341    11044(105)         11043.6953        10370.9326
  7245    72.4441    11032(105)         11011.3193        10371.2988
  7246    72.4541    10984(105)         10971.6104        10371.6660
  7247    72.4641    10868(104)         10927.7617        10372.0322
  7248    72.4741    11008(105)         10882.7100        10372.3984
  7249    72.4841    10888(104)         10839.4619        10372.7656
  7250    72.4941    10724(104)         10800.0410        10373.1318
  7251    72.5041    10748(104)         10765.9561        10373.4990
  7252    72.5141    10696(103)         10737.9912        10373.8652
  7253    72.5241    10624(103)         10716.2217        10374.2314
  7254    72.5341    10608(103)         10700.2959        10374.5986
  7255    72.5441    10552(103)         10689.6035        10374.9648
  7256    72.5541    10788(104)         10723.5234        10415.3145
  7257    72.5641    10596(103)         10761.7754        10455.6943
  7258    72.5741    10800(104)         10764.1475        10455.7988
  7259    72.5841    10668(103)         10771.2100        10455.9023
  7260    72.5941    10724(104)         10783.3447        10456.0068
  7261    72.6041    10752(104)         10800.7471        10456.1113
  7262    72.6141    10784(104)         10823.2354        10456.2158
  7263    72.6241    10852(104)         10850.3799        10456.3193
  7264    72.6341    10980(105)         10881.3252        10456.4238
  7265    72.6441    10800(104)         10914.9297        10456.5283
  7266    72.6541    10936(105)         10950.0283        10456.6328
  7267    72.6641    10912(104)         10985.3516        10456.7373
  7268    72.6741    11032(105)         11019.7383        10456.8408
  7269    72.6841    10972(105)         11051.9502        10456.9453
  7270    72.6941    11076(105)         11080.8672        10457.0498
  7271    72.7041    11184(106)         11105.6514        10457.1543
  7272    72.7141    11124(105)         11125.6543        10457.2578
  7273    72.7241    11028(105)         11140.5283        10457.3623
  7274    72.7341    11128(105)         11150.2275        10457.4668
  7275    72.7441    11068(105)         11154.7764        10457.5713
  7276    72.7541    11156(106)         11154.4473        10457.6748
  7277    72.7641    11020(105)         11149.5469        10457.7793
  7278    72.7741    11008(105)         11140.3545        10457.8838
  7279    72.7841    11012(105)         11127.0283        10457.9883
  7280    72.7941    11172(106)         11109.6094        10458.0918
  7281    72.8041    11144(106)         11087.9277        10458.1963
  7282    72.8141    11076(105)         11062.0215        10458.3008
  7283    72.8241    10948(105)         11032.0625        10458.4053
  7284    72.8341    10964(105)         10998.3867        10458.5088
  7285    72.8441    10932(105)         10961.4902        10458.6133
  7286    72.8541    10948(105)         10922.0977        10458.7178
  7287    72.8641    11004(105)         10881.3652        10458.8223
  7288    72.8741    10964(105)         10840.7549        10458.9258
  7289    72.8841    10860(104)         10801.8066        10459.0303
  7290    72.8941    10840(104)         10766.2949        10459.1348
  7291    72.9041    10636(103)         10735.8936        10459.2393
  7292    72.9141    10828(104)         10712.1182        10459.3428
  7293    72.9241    10724(104)         10696.1982        10459.4473
  7294    72.9341    10888(104)         10689.2627        10459.5518
  7295    72.9441    10712(103)         10692.1357        10459.6563
  7296    72.9541    10728(104)         10705.4766        10459.7598
  7297    72.9641    10616(103)         10729.8369        10459.8643
  7298    72.9741    10812(104)         10765.1914        10459.9688
  7299    72.9841    10796(104)         10811.3232        10460.0732
  7300    72.9941    10896(104)         10867.6904        10460.1768
  7301    73.0041    11064(105)         10933.1484        10460.2813
  7302    73.0141    11176(106)         11005.8750        10460.3857
  7303    73.0241    11188(106)         11083.6836        10460.4902
  7304    73.0341    11332(106)         11163.7266        10460.5938
  7305    73.0441    11500(107)         11243.0117        10460.6982
  7306    73.0541    11640(108)         11318.6758        10460.8027
  7307    73.0641    11684(108)         11388.5908        10460.9072
  7308    73.0741    11756(108)         11451.1602        10461.0107
  7309    73.0841    11672(108)         11505.6660        10461.1152
  7310    73.0941    11644(108)         11552.5820        10461.2197
  7311    73.1041    11524(107)         11593.5684        10461.3242
  7312    73.1141    11600(108)         11631.4951        10461.4287
  7313    73.1241    11480(107)         11669.7275        10461.5322
  7314    73.1341    11648(108)         11711.0938        10461.6367
  7315    73.1441    11624(108)         11757.2559        10461.7412
  7316    73.1541    11752(108)         11807.9326        10461.8457
  7317    73.1641    11672(108)         11860.5107        10461.9492
  7318    73.1741    11964(109)         11910.5625        10462.0537
  7319    73.1841    11988(109)         11951.8486        10462.1582
  7320    73.1941    12048(110)         11977.9053        10462.2617
  7321    73.2041    12096(110)         11983.3926        10462.3662
  7322    73.2141    11944(109)         11965.2783        10462.4707
  7323    73.2241    11808(109)         11923.5674        10462.5752
  7324    73.2341    11748(108)         11860.8418        10462.6787
  7325    73.2441    11640(108)         11781.5166        10462.7832
  7326    73.2541    11520(107)         11690.6914        10462.8877
  7327    73.2641    11308(106)         11593.5039        10462.9922
  7328    73.2741    11268(106)         11494.2295        10463.0967
  7329    73.2841    11260(106)         11396.4951        10463.2002
  7330    73.2941    11320(106)         11302.6260        10463.3047
  7331    73.3041    11084(105)         11214.3145        10463.4092
  7332    73.3141    11068(105)         11132.7627        10463.5137
  7333    73.3241    10984(105)         11059.7207        10463.6172
  7334    73.3341    10864(104)         10997.0938        10463.7217
  7335    73.3441    10904(104)         10947.4980        10463.8262
  7336    73.3541    10976(105)         10913.9170        10463.9307
  7337    73.3641    10900(104)         10899.6523        10464.0342
  7338    73.3741    10952(105)         10908.1211        10464.1387
  7339    73.3841    10972(105)         10942.9395        10464.2432
  7340    73.3941    11020(105)         11007.0928        10464.3477
  7341    73.4041    11132(106)         11102.7070        10464.4512
  7342    73.4141    11296(106)         11230.3350        10464.5557
  7343    73.4241    11320(106)         11388.5947        10464.6602
  7344    73.4341    11592(108)         11573.3770        10464.7646
  7345    73.4441    11640(108)         11777.6025        10464.8682
  7346    73.4541    11824(109)         11991.7773        10464.9727
  7347    73.4641    12080(110)         12203.4238        10465.0771
  7348    73.4741    12292(111)         12398.4795        10465.1816
  7349    73.4841    12440(112)         12562.4004        10465.2852
  7350    73.4941    12692(113)         12682.6641        10465.3896
  7351    73.5041    12820(113)         12750.3359        10465.4941
  7352    73.5141    12932(114)         12762.4219        10465.5986
  7353    73.5241    12856(113)         12722.1377        10465.7021
  7354    73.5341    12972(114)         12637.7832        10465.8066
  7355    73.5441    12668(113)         12520.8311        10465.9111
  7356    73.5541    12508(112)         12383.4365        10466.0156
  7357    73.5641    12336(111)         12236.8047        10466.1191
  7358    73.5741    12228(111)         12089.2676        10466.2236
  7359    73.5841    12012(110)         11946.2090        10466.3281
  7360    73.5941    12060(110)         11809.7793        10466.4326
  7361    73.6041    11820(109)         11680.3154        10466.5361
  7362    73.6141    11784(109)         11557.2998        10466.6406
  7363    73.6241    11392(107)         11440.2490        10466.7451
  7364    73.6341    11388(107)         11329.0381        10466.8496
  7365    73.6441    11264(106)         11224.4385        10466.9531
  7366    73.6541    11192(106)         11127.5488        10467.0576
  7367    73.6641    11104(105)         11039.7822        10467.1621
  7368    73.6741    11088(105)         10962.3223        10467.2666
  7369    73.6841    10936(105)         10896.3223        10467.3701
  7370    73.6941    10956(105)         10842.4824        10467.4746
  7371    73.7041    10892(104)         10800.8457        10467.5791
  7372    73.7141    10816(104)         10770.9355        10467.6836
  7373    73.7241    10888(104)         10751.7275        10467.7881
  7374    73.7341    10752(104)         10741.5430        10467.8916
  7375    73.7441    10728(104)         10738.3818        10467.9961
  7376    73.7541    10776(104)         10740.0566        10468.1006
  7377    73.7641    10728(104)         10744.3271        10468.2041
  7378    73.7741    10772(104)         10749.3467        10468.3086
  7379    73.7841    10660(103)         10753.5508        10468.4131
  7380    73.7941    10824(104)         10757.8379        10470.5313
  7381    73.8041    10736(104)         10759.6123        10472.6475
  7382    73.8141    10836(104)         10758.9375        10474.7646
  7383    73.8241    10744(104)         10755.9951        10476.8828
  7384    73.8341    10772(104)         10752.0615        10478.9990
  7385    73.8441    10712(103)         10747.9844        10481.1172
  7386    73.8541    10800(104)         10744.6699        10483.2354
  7387    73.8641    10764(104)         10742.7842        10485.3525
  7388    73.8741    10812(104)         10742.8232        10487.4688
  7389    73.8841    10764(104)         10744.6113        10489.5869
  7390    73.8941    10892(104)         10748.0098        10491.7051
  7391    73.9041    10880(104)         10752.4883        10493.8223
  7392    73.9141    10872(104)         10757.3535        10495.9385
  7393    73.9241    10892(104)         10761.9980        10498.0566
  7394    73.9341    11052(105)         10766.0215        10500.1748
  7395    73.9441    10808(104)         10769.7188        10502.2910
  7396    73.9541    10860(104)         10774.0000        10504.4092
  7397    73.9641    10736(104)         10780.3164        10506.5264
  7398    73.9741    10872(104)         10790.3203        10508.6445
  7399    73.9841    10748(104)         10805.6787        10510.7607
  7400    73.9941    10824(104)         10827.7686        10512.8789
  7401    74.0041    10924(105)         10857.4570        10514.9961
  7402    74.0141    10948(105)         10894.9717        10517.1123
  7403    74.0241    10916(104)         10939.9297        10519.2305
  7404    74.0341    11012(105)         10991.2441        10521.3486
  7405    74.0441    11048(105)         11047.1592        10523.4668
  7406    74.0541    11136(106)         11105.6816        10525.5830
  7407    74.0641    11112(105)         11164.7148        10527.7002
  7408    74.0741    11244(106)         11222.2100        10529.8184
  7409    74.0841    11228(106)         11275.9521        10531.9346
  7410    74.0941    11268(106)         11325.0566        10534.0527
  7411    74.1041    11224(106)         11369.1748        10536.1699
  7412    74.1141    11404(107)         11409.0928        10538.2881
  7413    74.1241    11212(106)         11446.6582        10540.4043
  7414    74.1341    11428(107)         11483.6465        10542.5225
  7415    74.1441    11508(107)         11521.8682        10544.6406
  7416    74.1541    11636(108)         11562.0234        10546.7578
  7417    74.1641    11584(108)         11604.2441        10548.8740
  7418    74.1741    11796(109)         11647.9463        10550.9922
  7419    74.1841    11708(108)         11692.1201        10553.1104
  7420    74.1941    11724(108)         11735.7568        10555.2266
  7421    74.2041    11720(108)         11777.9541        10557.3447
  7422    74.2141    11852(109)         11817.3652        10559.4619
  7423    74.2241    11708(108)         11851.9932        10561.5801
  7424    74.2341    11816(109)         11879.0264        10563.6963
  7425    74.2441    11648(108)         11895.0947        10565.8145
  7426    74.2541    11720(108)         11896.6133        10567.9316
  7427    74.2641    11600(108)         11880.4941        10570.0479
  7428    74.2741    11616(108)         11844.7783        10572.1660
  7429    74.2841    11436(107)         11789.0410        10574.2842
  7430    74.2941    11608(108)         11714.8320        10576.4014
  7431    74.3041    11420(107)         11625.6299        10578.5186
  7432    74.3141    11360(107)         11526.0020        10580.6357
  7433    74.3241    11160(106)         11421.3535        10582.7539
  7434    74.3341    11100(105)         11316.9658        10584.8701
  7435    74.3441    10844(104)         11217.2764        10586.9883
  7436    74.3541    10824(104)         11125.6416        10589.1055
  7437    74.3641    10812(104)         11044.5635        10591.2236
  7438    74.3741    10744(104)         10975.5215        10593.3398
  7439    74.3841    10616(103)         10918.8721        10595.4580
  7440    74.3941    10676(103)         10874.7139        10597.5762
  7441    74.4041    10520(103)         10842.5166        10599.6934
  7442    74.4141    10620(103)         10821.4150        10601.8096
  7443    74.4241    10556(103)         10810.5742        10603.9277
  7444    74.4341    10596(103)         10809.1484        10606.0459
  7445    74.4441    10588(103)         10816.3252        10608.1621
  7446    74.4541    10616(103)         10831.2666        10610.2793
  7447    74.4641    10580(103)         10853.0654        10612.3975
  7448    74.4741    10720(104)         10880.6523        10614.5156
  7449    74.4841    10756(104)         10616.6318        10616.6318
_pd_proc_number_of_points   7199

loop_
      _refln_index_h
      _refln_index_k
      _refln_index_l
      _refln_mult
      _pd_refln_phase_id
      _refln_observed_status
      _refln_F_squared_meas
      _refln_F_squared_calc
      _refln_phase_calc
      _refln_d_spacing
   1   1   0  4  1  o          0.0000    13959.0166    0.00  13.51765
   0   2   0  2  1  o          0.0000    11584.3643    0.00  10.20340
   2   0   0  2  1  o          0.0000    95205.5078    0.00   9.02208
   2   2   0  4  1  o          0.0000      929.0759    0.00   6.75882
   1   1   1  8  1  o          0.0000    35998.3828    0.00   6.55810
   1   3   0  4  1  o          0.0000    20941.9590    0.00   6.36501
   0   2   1  4  1  o          0.0000    14525.3086    0.00   6.04302
   3   1   0  4  1  o          0.0000    21253.9668    0.00   5.76934
   0   4   0  2  1  o          0.0000     6482.0449    0.00   5.10170
   2   2   1  8  1  o          0.0000     2809.8440    0.00   5.02081
   1   3   1  8  1  o          0.0000     3650.2949    0.00   4.85290
   3   1   1  8  1  o          0.0000     6977.4316    0.00   4.57285
   4   0   0  2  1  o          0.0000       67.4228    0.00   4.51104
   3   3   0  4  1  o          0.0000    57683.8906    0.00   4.50588
   2   4   0  4  1  o          0.0000       29.7747    0.00   4.44087
   0   4   1  4  1  o          0.0000     8115.2739    0.00   4.21826
   4   2   0  4  1  o          0.0000    10405.3145    0.00   4.12581
   1   5   0  4  1  o          0.0000   154887.0000    0.00   3.98080
   3   3   1  8  1  o          0.0000      629.7525    0.00   3.86241
   2   4   1  8  1  o          0.0000    22788.8535    0.00   3.82123
   0   0   2  2  1  o          0.0000    63504.9961    0.00   3.74993
   4   2   1  8  1  o          0.0000     5611.5054    0.00   3.61492
   1   1   2  8  1  o          0.0000     1502.9214    0.00   3.61347
   5   1   0  4  1  o          0.0000     6581.0625    0.00   3.55369
   0   2   2  4  1  o          0.0000    13791.4980    0.00   3.51975
   1   5   1  8  1  o          0.0000       72.4072    0.00   3.51619
   2   0   2  4  1  o          0.0000   265800.1250    0.00   3.46274
   0   6   0  2  1  o          0.0000    42286.4141    0.00   3.40113
   4   4   0  4  1  o          0.0000     1366.3158    0.00   3.37941
   3   5   0  4  1  o          0.0000   152708.1090    0.00   3.37724
   2   2   2  8  1  o          0.0000     5577.0986    0.00   3.27905
   1   3   2  8  1  o          0.0000    13671.7559    0.00   3.23090
   5   1   1  8  1  o          0.0000    92322.9375    0.00   3.21142
   5   3   0  4  1  o          0.0000   121618.4770    0.00   3.18796
   2   6   0  4  1  o          0.0000        1.4287    0.00   3.18251
   3   1   2  8  1  o          0.0000     5952.0415    0.00   3.14414
   0   6   1  4  1  o          0.0000    17200.3340    0.00   3.09751
   4   4   1  8  1  o          0.0000     2940.0095    0.00   3.08107
   3   5   1  8  1  o          0.0000     1113.0991    0.00   3.07943
   0   4   2  4  1  o          0.0000        0.7751    0.00   3.02151
   6   0   0  2  1  o          0.0000     3959.8694    0.00   3.00736
   5   3   1  8  1  o          0.0000     1698.4465    0.00   2.93391
   2   6   1  8  1  o          0.0000    17076.0410    0.00   2.92965
   6   2   0  4  1  o          0.0000     5719.2622    0.00   2.88467
   4   0   2  4  1  o          0.0000    50695.5898    0.00   2.88369
   3   3   2  8  1  o          0.0000    27814.8066    0.00   2.88234
   1   7   0  4  1  o          0.0000     1178.5332    0.00   2.87794
   2   4   2  8  1  o          0.0000     2751.4666    0.00   2.86510
   4   2   2  8  1  o          0.0000     2714.3440    0.00   2.77499
   1   5   2  8  1  o          0.0000     1878.0885    0.00   2.72957
   4   6   0  4  1  o          0.0000       39.7732    0.00   2.71574
   5   5   0  4  1  o          0.0000     2858.5518    0.00   2.70353
   6   2   1  8  1  o          0.0000     7744.8965    0.00   2.69238
   1   7   1  8  1  o          0.0000     8450.3672    0.00   2.68691
   3   7   0  4  1  o          0.0000     8401.8545    0.00   2.62336
   6   4   0  4  1  o          0.0000     1930.9338    0.00   2.59073
   5   1   2  8  1  o          0.0000     5978.0566    0.00   2.57942
   7   1   0  4  1  o          0.0000     1068.0732    0.00   2.55741
   4   6   1  8  1  o          0.0000      352.4780    0.00   2.55349
   0   8   0  2  1  o          0.0000    54770.0820    0.00   2.55085
   5   5   1  8  1  o          0.0000     2972.7258    0.00   2.54333
   0   6   2  4  1  o          0.0000     1664.3348    0.00   2.51927
   4   4   2  8  1  o          0.0000     1298.4218    0.00   2.51041
   3   5   2  8  1  o          0.0000    45237.3672    0.00   2.50952
   3   7   1  8  1  o          0.0000     1329.7793    0.00   2.47624
   1   1   3  8  1  o          0.0000     9434.7637    0.00   2.45827
   2   8   0  4  1  o          0.0000    13803.8203    0.00   2.45463
   6   4   1  8  1  o          0.0000    12987.9971    0.00   2.44875
   5   3   2  8  1  o          0.0000     7867.5098    0.00   2.42887
   0   2   3  4  1  o          0.0000     1738.8397    0.00   2.42813
   2   6   2  8  1  o          0.0000     6982.9800    0.00   2.42645
   7   1   1  8  1  o          0.0000      842.7206    0.00   2.42056
   0   8   1  4  1  o          0.0000     2175.2585    0.00   2.41499
   7   3   0  4  1  o          0.0000     2596.8201    0.00   2.41046
   6   0   2  4  1  o          0.0000      134.8836    0.00   2.34609
   2   2   3  8  1  o          0.0000     1438.0149    0.00   2.34470
   2   8   1  8  1  o          0.0000        2.3780    0.00   2.33286
   1   3   3  8  1  o          0.0000     2248.3523    0.00   2.32691
   7   3   1  8  1  o          0.0000      310.3999    0.00   2.29485
   3   1   3  8  1  o          0.0000        4.9856    0.00   2.29386
   6   2   2  8  1  o          0.0000     3717.1230    0.00   2.28643
   1   7   2  8  1  o          0.0000     4156.1694    0.00   2.28307
   5   7   0  4  1  o          0.0000    12201.3945    0.00   2.26777
   8   0   0  2  1  o          0.0000        4.6656    0.00   2.25552
   6   6   0  4  1  o          0.0000       53.6482    0.00   2.25294
   1   9   0  4  1  o          0.0000      684.7650    0.00   2.24973
   0   4   3  4  1  o          0.0000      813.4597    0.00   2.24491
   4   8   0  4  1  o          0.0000    26446.0293    0.00   2.22044
   8   2   0  4  1  o          0.0000       24.2809    0.00   2.20235
   4   6   2  8  1  o          0.0000      664.1678    0.00   2.19952
   5   5   2  8  1  o          0.0000     1260.6697    0.00   2.19301
   3   3   3  8  1  o          0.0000      131.1372    0.00   2.18603
   7   5   0  4  1  o          0.0000     3338.8547    0.00   2.17944
   2   4   3  8  1  o          0.0000     9504.7266    0.00   2.17849
   5   7   1  8  1  o          0.0000      298.6986    0.00   2.17070
   6   6   1  8  1  o          0.0000    10430.9707    0.00   2.15769
   1   9   1  8  1  o          0.0000       40.9626    0.00   2.15487
   3   7   2  8  1  o          0.0000     4581.4785    0.00   2.14957
   4   2   3  8  1  o          0.0000     1803.6082    0.00   2.13808
   6   4   2  8  1  o          0.0000      235.0984    0.00   2.13151
   4   8   1  8  1  o          0.0000        0.8442    0.00   2.12909
   3   9   0  4  1  o          0.0000     2506.8982    0.00   2.12167
   1   5   3  8  1  o          0.0000      191.2961    0.00   2.11709
   8   2   1  8  1  o          0.0000      179.8184    0.00   2.11313
   7   1   2  8  1  o          0.0000        5.4169    0.00   2.11284
   0   8   2  4  1  o          0.0000     9956.4551    0.00   2.10913
   7   5   1  8  1  o          0.0000       88.2016    0.00   2.09286
   8   4   0  4  1  o          0.0000        9.9377    0.00   2.06290
   2   8   2  8  1  o          0.0000       30.1586    0.00   2.05376
   5   1   3  8  1  o          0.0000     3824.1611    0.00   2.04469
   3   9   1  8  1  o          0.0000     6679.5083    0.00   2.04155
   0  10   0  2  1  o          0.0000   124349.8980    0.00   2.04068
   7   3   2  8  1  o          0.0000    19761.2422    0.00   2.02768
   0   6   3  4  1  o          0.0000     4098.0474    0.00   2.01434
   4   4   3  8  1  o          0.0000    37101.1680    0.00   2.00980
   3   5   3  8  1  o          0.0000       19.7564    0.00   2.00934
   9   1   0  4  1  o          0.0000     5164.7773    0.00   1.99530
   2  10   0  4  1  o          0.0000      140.6978    0.00   1.99040
   8   4   1  8  1  o          0.0000    22849.3516    0.00   1.98903
   0  10   1  4  1  o          0.0000      203.5752    0.00   1.96909
   5   3   3  8  1  o          0.0000     5439.4771    0.00   1.96722
   2   6   3  8  1  o          0.0000     3729.1929    0.00   1.96594
   6   8   0  4  1  o          0.0000   106140.5310    0.00   1.94532
   5   7   2  8  1  o          0.0000     1133.1902    0.00   1.94052
   8   0   2  4  1  o          0.0000      461.9930    0.00   1.93283
   6   6   2  8  1  o          0.0000       95.8592    0.00   1.93120
   7   7   0  4  1  o          0.0000       33.7576    0.00   1.93109
   1   9   2  8  1  o          0.0000      103.9052    0.00   1.92918
   9   1   1  8  1  o          0.0000    17329.0293    0.00   1.92823
   2  10   1  8  1  o          0.0000      812.5911    0.00   1.92380
   9   3   0  4  1  o          0.0000     7157.5181    0.00   1.92311
   5   9   0  4  1  o          0.0000     1588.9830    0.00   1.91992
   4   8   2  8  1  o          0.0000    25649.7246    0.00   1.91061
   8   2   2  8  1  o          0.0000      390.3700    0.00   1.89905
   6   2   3  8  1  o          0.0000     3468.1353    0.00   1.88922
   1   7   3  8  1  o          0.0000     2577.0352    0.00   1.88732
   7   5   2  8  1  o          0.0000      750.1192    0.00   1.88431
   6   8   1  8  1  o          0.0000       77.4838    0.00   1.88301
   8   6   0  4  1  o          0.0000       10.7914    0.00   1.87974
   0   0   4  2  1  o          0.0000   250587.6880    0.00   1.87496
   7   7   1  8  1  o          0.0000     4718.1851    0.00   1.87010
   9   3   1  8  1  o          0.0000      110.5245    0.00   1.86285
   5   9   1  8  1  o          0.0000    14614.5156    0.00   1.85994
   4  10   0  4  1  o          0.0000     5728.0405    0.00   1.85928
   1   1   4  8  1  o          0.0000     7777.3105    0.00   1.85718
   3   9   2  8  1  o          0.0000      886.5723    0.00   1.84660
   1  11   0  4  1  o          0.0000     6569.4282    0.00   1.84544
   0   2   4  4  1  o          0.0000     4386.9199    0.00   1.84409
   4   6   3  8  1  o          0.0000     3071.7419    0.00   1.83930
   2   0   4  4  1  o          0.0000    13687.5674    0.00   1.83574
   5   5   3  8  1  o          0.0000      730.5895    0.00   1.83549
   8   6   1  8  1  o          0.0000     1154.4121    0.00   1.82334
   3   7   3  8  1  o          0.0000     2985.1743    0.00   1.80979
   8   4   2  8  1  o          0.0000       76.9031    0.00   1.80746
   2   2   4  8  1  o          0.0000      325.0866    0.00   1.80673
   4  10   1  8  1  o          0.0000     1221.4891    0.00   1.80466
  10   0   0  2  1  o          0.0000   126530.9300    0.00   1.80442
   9   5   0  4  1  o          0.0000      792.1350    0.00   1.79951
   6   4   3  8  1  o          0.0000      203.6294    0.00   1.79897
   1   3   4  8  1  o          0.0000      610.7798    0.00   1.79855
   0  10   2  4  1  o          0.0000      900.9894    0.00   1.79246
   1  11   1  8  1  o          0.0000    12623.8916    0.00   1.79198
   7   1   3  8  1  o          0.0000    53701.4102    0.00   1.78770
   0   8   3  4  1  o          0.0000     1112.7399    0.00   1.78546
   3   1   4  8  1  o          0.0000      903.5834    0.00   1.78316
  10   2   0  4  1  o          0.0000      405.5516    0.00   1.77685
   3  11   0  4  1  o          0.0000      286.7870    0.00   1.77276
   9   1   2  8  1  o          0.0000      312.1593    0.00   1.76147
   0   4   4  4  1  o          0.0000      447.1224    0.00   1.75988
   2  10   2  8  1  o          0.0000     5112.1152    0.00   1.75809
   2   8   3  8  1  o          0.0000     1452.6495    0.00   1.75149
   9   5   1  8  1  o          0.0000      119.6015    0.00   1.74984
   7   3   3  8  1  o          0.0000     1864.6971    0.00   1.73523
   4   0   4  4  1  o          0.0000     7575.5840    0.00   1.73137
   3   3   4  8  1  o          0.0000     3596.5813    0.00   1.73108
  10   2   1  8  1  o          0.0000     1215.4821    0.00   1.72898
   2   4   4  8  1  o          0.0000       97.0650    0.00   1.72732
   6   8   2  8  1  o          0.0000     2196.4915    0.00   1.72679
   3  11   1  8  1  o          0.0000       44.0133    0.00   1.72522
   7   7   2  8  1  o          0.0000     9731.1289    0.00   1.71682
   9   3   2  8  1  o          0.0000    18362.1016    0.00   1.71121
   5   9   2  8  1  o          0.0000      188.1831    0.00   1.70896
   4   2   4  8  1  o          0.0000     3207.8330    0.00   1.70697
   7   9   0  4  1  o          0.0000      645.2567    0.00   1.70251
  10   4   0  4  1  o          0.0000      491.4896    0.00   1.70115
   0  12   0  2  1  o          0.0000      450.4756    0.00   1.70057
   1   5   4  8  1  o          0.0000    12612.2920    0.00   1.69623
   8   8   0  4  1  o          0.0000    45261.7617    0.00   1.68971
   6  10   0  4  1  o          0.0000     5433.3374    0.00   1.68862
   8   6   2  8  1  o          0.0000      269.3390    0.00   1.68043
   5   7   3  8  1  o          0.0000    16414.8242    0.00   1.67966
   6   6   3  8  1  o          0.0000     2912.6089    0.00   1.67360
   1   9   3  8  1  o          0.0000     1633.9437    0.00   1.67229
   2  12   0  4  1  o          0.0000     4974.4028    0.00   1.67114
   4  10   2  8  1  o          0.0000      245.2775    0.00   1.66577
   7   9   1  8  1  o          0.0000     9324.3643    0.00   1.66027
   4   8   3  8  1  o          0.0000     1751.9917    0.00   1.66015
  10   4   1  8  1  o          0.0000     1556.8743    0.00   1.65901
   0  12   1  4  1  o          0.0000    39576.4531    0.00   1.65847
   5   1   4  8  1  o          0.0000     1397.8198    0.00   1.65830
   1  11   2  8  1  o          0.0000     3124.3723    0.00   1.65579
   8   2   3  8  1  o          0.0000      423.3725    0.00   1.65255
   9   7   0  4  1  o          0.0000      179.4116    0.00   1.65195
   5  11   0  4  1  o          0.0000     7143.4390    0.00   1.64992
   8   8   1  8  1  o          0.0000     1175.1721    0.00   1.64839
   6  10   1  8  1  o          0.0000     2502.4800    0.00   1.64738
   7   5   3  8  1  o          0.0000     2048.8381    0.00   1.64280
   0   6   4  4  1  o          0.0000     7696.4590    0.00   1.64199
   4   4   4  8  1  o          0.0000        9.1354    0.00   1.63953
   3   5   4  8  1  o          0.0000     4174.9897    0.00   1.63928
  11   1   0  4  1  o          0.0000     8279.1553    0.00   1.63510
   2  12   1  8  1  o          0.0000       32.5813    0.00   1.63114
  10   0   2  4  1  o          0.0000      183.9874    0.00   1.62597
   9   5   2  8  1  o          0.0000      538.0186    0.00   1.62238
   3   9   3  8  1  o          0.0000       47.1344    0.00   1.61763
   5   3   4  8  1  o          0.0000    23932.3574    0.00   1.61616
   2   6   4  8  1  o          0.0000       15.6662    0.00   1.61545
   9   7   1  8  1  o          0.0000       26.5613    0.00   1.61328
   5  11   1  8  1  o          0.0000     2090.0544    0.00   1.61139
  10   2   2  8  1  o          0.0000     5478.2778    0.00   1.60571
   3  11   2  8  1  o          0.0000      935.3985    0.00   1.60269
  11   1   1  8  1  o          0.0000     3759.6116    0.00   1.59758
  11   3   0  4  1  o          0.0000      205.0014    0.00   1.59467
  10   6   0  4  1  o          0.0000     2534.1624    0.00   1.59398
   4  12   0  4  1  o          0.0000     3317.3540    0.00   1.59125
   8   4   3  8  1  o          0.0000    45897.6875    0.00   1.59113
   6   0   4  4  1  o          0.0000     7153.6235    0.00   1.59107
   0  10   3  4  1  o          0.0000       52.2033    0.00   1.58087
   6   2   4  8  1  o          0.0000     5153.8833    0.00   1.57207
   1   7   4  8  1  o          0.0000     1879.0750    0.00   1.57098
   1  13   0  4  1  o          0.0000     6295.0981    0.00   1.56385
  11   3   1  8  1  o          0.0000     1689.8763    0.00   1.55980
   9   1   3  8  1  o          0.0000     2852.5667    0.00   1.55949
  10   6   1  8  1  o          0.0000     5035.1768    0.00   1.55916
   2  10   3  8  1  o          0.0000      392.9608    0.00   1.55714
   4  12   1  8  1  o          0.0000     1283.9753    0.00   1.55660
   7   9   2  8  1  o          0.0000      931.8143    0.00   1.55022
  10   4   2  8  1  o          0.0000       40.2509    0.00   1.54919
   0  12   2  4  1  o          0.0000    18869.5332    0.00   1.54875
   4   6   4  8  1  o          0.0000        2.7839    0.00   1.54295
   5   5   4  8  1  o          0.0000     2653.1663    0.00   1.54070
   8   8   2  8  1  o          0.0000    49053.5664    0.00   1.54054
   6  10   2  8  1  o          0.0000      721.3038    0.00   1.53971
   6   8   3  8  1  o          0.0000     1413.1860    0.00   1.53527
   1  13   1  8  1  o          0.0000      243.7471    0.00   1.53092
   7   7   3  8  1  o          0.0000       33.7297    0.00   1.52825
   2  12   2  8  1  o          0.0000        3.3775    0.00   1.52643
   3   7   4  8  1  o          0.0000     1573.8397    0.00   1.52541
   9   3   3  8  1  o          0.0000      339.4444    0.00   1.52428
   5   9   3  8  1  o          0.0000    40532.0117    0.00   1.52269
  11   5   0  4  1  o          0.0000    43230.7188    0.00   1.52204
   6   4   4  8  1  o          0.0000        0.7831    0.00   1.51891
   3  13   0  4  1  o          0.0000    68308.1094    0.00   1.51888
   8  10   0  4  1  o          0.0000      171.0389    0.00   1.51325
   7   1   4  8  1  o          0.0000     1175.7194    0.00   1.51211
   9   7   2  8  1  o          0.0000      150.0731    0.00   1.51176
   0   8   4  4  1  o          0.0000      642.8085    0.00   1.51075
   5  11   2  8  1  o          0.0000      244.4007    0.00   1.51021
   7  11   0  4  1  o          0.0000       10.4969    0.00   1.50575
  12   0   0  2  1  o          0.0000       89.4753    0.00   1.50368
   8   6   3  8  1  o          0.0000     7227.2363    0.00   1.50241
   9   9   0  4  1  o          0.0000       57.6212    0.00   1.50196
  11   1   2  8  1  o          0.0000     1784.1810    0.00   1.49882
   4  10   3  8  1  o          0.0000      656.9310    0.00   1.49191
  11   5   1  8  1  o          0.0000      164.1327    0.00   1.49164
   1   1   5  8  1  o          0.0000     7606.9014    0.00   1.49082
   2   8   4  8  1  o          0.0000      982.3580    0.00   1.49001
   3  13   1  8  1  o          0.0000       74.4344    0.00   1.48866
  12   2   0  4  1  o          0.0000     2211.8860    0.00   1.48761
   1  11   3  8  1  o          0.0000     3281.9644    0.00   1.48472
   0   2   5  4  1  o          0.0000     2666.6221    0.00   1.48402
   8  10   1  8  1  o          0.0000      665.5493    0.00   1.48335
   6  12   0  4  1  o          0.0000     9836.3916    0.00   1.48029
   7   3   4  8  1  o          0.0000     1405.2284    0.00   1.47996
   7  11   1  8  1  o          0.0000     1324.3893    0.00   1.47629
  10   8   0  4  1  o          0.0000    45975.0820    0.00   1.47311
   9   9   1  8  1  o          0.0000     7086.9365    0.00   1.47272
  11   3   2  8  1  o          0.0000        2.4481    0.00   1.46749
  10   6   2  8  1  o          0.0000     1538.6437    0.00   1.46695
   4  12   2  8  1  o          0.0000     1382.1605    0.00   1.46483
   2   2   5  8  1  o          0.0000      443.8976    0.00   1.46434
   9   5   3  8  1  o          0.0000        4.4824    0.00   1.46049
   1   3   5  8  1  o          0.0000      461.8895    0.00   1.45998
  12   2   1  8  1  o          0.0000     1299.4524    0.00   1.45918
   0  14   0  2  1  o          0.0000     4682.0659    0.00   1.45763
   6  12   1  8  1  o          0.0000     1498.0464    0.00   1.45227
   3   1   5  8  1  o          0.0000    14873.6934    0.00   1.45171
  10   2   3  8  1  o          0.0000     1393.1360    0.00   1.44830
   3  11   3  8  1  o          0.0000     2686.0891    0.00   1.44608
  10   8   1  8  1  o          0.0000      652.7056    0.00   1.44549
   5   7   4  8  1  o          0.0000     6795.3867    0.00   1.44503
   1  13   2  8  1  o          0.0000    33476.9141    0.00   1.44336
  12   4   0  4  1  o          0.0000      418.4160    0.00   1.44234
   8   0   4  4  1  o          0.0000     3358.7515    0.00   1.44184
   6   6   4  8  1  o          0.0000      433.9898    0.00   1.44117
   1   9   4  8  1  o          0.0000       75.4915    0.00   1.44033
   5  13   0  4  1  o          0.0000   118379.5940    0.00   1.43947
   0   4   5  4  1  o          0.0000    25779.9102    0.00   1.43906
   2  14   0  4  1  o          0.0000     2527.0657    0.00   1.43897
   4   8   4  8  1  o          0.0000     1111.0077    0.00   1.43255
   0  14   1  4  1  o          0.0000    17512.2031    0.00   1.43086
  11   7   0  4  1  o          0.0000      444.5370    0.00   1.42960
   8   2   4  8  1  o          0.0000       27.7615    0.00   1.42766
   3   3   5  8  1  o          0.0000     2063.4751    0.00   1.42319
   7   5   4  8  1  o          0.0000     3879.6650    0.00   1.42136
   2   4   5  8  1  o          0.0000    43245.9141    0.00   1.42110
  12   4   1  8  1  o          0.0000      177.0746    0.00   1.41638
   5  13   1  8  1  o          0.0000     1013.3113    0.00   1.41367
   2  14   1  8  1  o          0.0000       85.2199    0.00   1.41319
  11   5   2  8  1  o          0.0000     1405.8102    0.00   1.41030
   4   2   5  8  1  o          0.0000     1670.4603    0.00   1.40970
   3  13   2  8  1  o          0.0000    29242.4668    0.00   1.40778
   7   9   3  8  1  o          0.0000    17920.2773    0.00   1.40718
  10   4   3  8  1  o          0.0000    28025.4551    0.00   1.40642
   0  12   3  4  1  o          0.0000      595.3442    0.00   1.40609
   3   9   4  8  1  o          0.0000     1010.1028    0.00   1.40497
  11   7   1  8  1  o          0.0000     5885.9082    0.00   1.40431
   1   5   5  8  1  o          0.0000       26.3242    0.00   1.40363
   8  10   2  8  1  o          0.0000      278.2733    0.00   1.40330
   8   8   3  8  1  o          0.0000      508.6355    0.00   1.39993
   6  10   3  8  1  o          0.0000      509.1927    0.00   1.39931
   7  11   2  8  1  o          0.0000     1419.4224    0.00   1.39731
  12   0   2  4  1  o          0.0000    81776.1172    0.00   1.39566
   9   9   2  8  1  o          0.0000       13.1421    0.00   1.39428
   2  12   3  8  1  o          0.0000    21111.1816    0.00   1.38932
   8   4   4  8  1  o          0.0000      248.1619    0.00   1.38750
   4  14   0  4  1  o          0.0000       24.4998    0.00   1.38702
  13   1   0  4  1  o          0.0000     2738.3699    0.00   1.38481
  12   2   2  8  1  o          0.0000     2935.5571    0.00   1.38278
   5   1   5  8  1  o          0.0000    79841.3359    0.00   1.38191
   0  10   4  4  1  o          0.0000    11800.3359    0.00   1.38067
   9   7   3  8  1  o          0.0000       23.4214    0.00   1.37823
   5  11   3  8  1  o          0.0000     3105.6621    0.00   1.37705
   6  12   2  8  1  o          0.0000     1350.4402    0.00   1.37689
  12   6   0  4  1  o          0.0000      731.7654    0.00   1.37527
   0   6   5  4  1  o          0.0000     6117.7964    0.00   1.37243
  10   8   2  8  1  o          0.0000    53503.1016    0.00   1.37111
   4   4   5  8  1  o          0.0000     7366.1616    0.00   1.37099
   3   5   5  8  1  o          0.0000      872.8660    0.00   1.37085
  11   1   3  8  1  o          0.0000    30981.2344    0.00   1.36840
   9   1   4  8  1  o          0.0000      592.4109    0.00   1.36636
   2  10   4  8  1  o          0.0000       38.7485    0.00   1.36479
   4  14   1  8  1  o          0.0000     2834.7009    0.00   1.36389
  13   1   1  8  1  o          0.0000     6146.3193    0.00   1.36179
   9  11   0  4  1  o          0.0000     5740.1680    0.00   1.36166
  13   3   0  4  1  o          0.0000     6232.7505    0.00   1.35999
   0  14   2  4  1  o          0.0000     2623.2559    0.00   1.35860
   8  12   0  4  1  o          0.0000      549.5905    0.00   1.35787
   5   3   5  8  1  o          0.0000     4442.7832    0.00   1.35724
   2   6   5  8  1  o          0.0000     6955.1875    0.00   1.35682
   1  15   0  4  1  o          0.0000     1047.0067    0.00   1.35660
  12   6   1  8  1  o          0.0000     6559.8608    0.00   1.35271
  10  10   0  4  1  o          0.0000    21970.8848    0.00   1.35176
   6   8   4  8  1  o          0.0000    33234.9414    0.00   1.34999
  12   4   2  8  1  o          0.0000     1307.1265    0.00   1.34619
   7   7   4  8  1  o          0.0000      336.1126    0.00   1.34521
  11   3   3  8  1  o          0.0000       42.5370    0.00   1.34443
  10   6   3  8  1  o          0.0000    10693.0723    0.00   1.34402
   5  13   2  8  1  o          0.0000      609.6458    0.00   1.34386
   2  14   2  8  1  o          0.0000      159.3187    0.00   1.34345
   9   3   4  8  1  o          0.0000      341.5725    0.00   1.34250
   4  12   3  8  1  o          0.0000    12529.3730    0.00   1.34239
   5   9   4  8  1  o          0.0000      202.4130    0.00   1.34141
   7  13   0  4  1  o          0.0000      518.7184    0.00   1.34072
   9  11   1  8  1  o          0.0000     2543.5754    0.00   1.33976
  13   3   1  8  1  o          0.0000      108.1633    0.00   1.33817
   8  12   1  8  1  o          0.0000     5575.6748    0.00   1.33615
  11   7   2  8  1  o          0.0000     3907.3694    0.00   1.33582
   1  15   1  8  1  o          0.0000      199.6396    0.00   1.33494
   6   2   5  8  1  o          0.0000     3888.3384    0.00   1.33081
  10  10   1  8  1  o          0.0000        1.6669    0.00   1.33033
   1   7   5  8  1  o          0.0000     6077.6919    0.00   1.33015
  11   9   0  4  1  o          0.0000      697.9943    0.00   1.32904
   8   6   4  8  1  o          0.0000     1213.8402    0.00   1.32748
   3  15   0  4  1  o          0.0000       43.8930    0.00   1.32693
   1  13   3  8  1  o          0.0000      840.6476    0.00   1.32581
   4  10   4  8  1  o          0.0000        9.2718    0.00   1.32022
   7  13   1  8  1  o          0.0000      678.9460    0.00   1.31980
   1  11   4  8  1  o          0.0000     3294.0173    0.00   1.31524
  13   5   0  4  1  o          0.0000    28987.8770    0.00   1.31410
   4   6   5  8  1  o          0.0000     2781.6250    0.00   1.31301
   6  14   0  4  1  o          0.0000     3470.8022    0.00   1.31168
   5   5   5  8  1  o          0.0000     4987.5093    0.00   1.31162
  11   9   1  8  1  o          0.0000     6487.5981    0.00   1.30865
   3  15   1  8  1  o          0.0000       14.6472    0.00   1.30664
   3   7   5  8  1  o          0.0000     4271.0366    0.00   1.30215
   4  14   2  8  1  o          0.0000        6.6922    0.00   1.30088
  10   0   4  4  1  o          0.0000    26175.7617    0.00   1.30014
  11   5   3  8  1  o          0.0000      298.8190    0.00   1.30005
  13   1   2  8  1  o          0.0000     5467.2998    0.00   1.29906
   9   5   4  8  1  o          0.0000     1973.3109    0.00   1.29830
   6   4   5  8  1  o          0.0000    16590.9121    0.00   1.29810
   3  13   3  8  1  o          0.0000      219.4718    0.00   1.29808
  12   8   0  4  1  o          0.0000    60763.0547    0.00   1.29537
   8  10   3  8  1  o          0.0000      649.4826    0.00   1.29456
  13   5   1  8  1  o          0.0000      201.1227    0.00   1.29438
   7   1   5  8  1  o          0.0000     4309.7520    0.00   1.29385
   0   8   5  4  1  o          0.0000     1748.8062    0.00   1.29299
   6  14   1  8  1  o          0.0000     4609.1885    0.00   1.29207
  12   6   2  8  1  o          0.0000     6112.6973    0.00   1.29117
   7  11   3  8  1  o          0.0000      598.5159    0.00   1.28985
  10   2   4  8  1  o          0.0000      210.1636    0.00   1.28971
  14   0   0  2  1  o          0.0000      498.3419    0.00   1.28887
   3  11   4  8  1  o          0.0000      121.8059    0.00   1.28815
   9   9   3  8  1  o          0.0000      157.9997    0.00   1.28747
   2   8   5  8  1  o          0.0000      450.3361    0.00   1.27992
   9  11   2  8  1  o          0.0000      289.1841    0.00   1.27990
  14   2   0  4  1  o          0.0000     1594.3746    0.00   1.27871
  13   3   2  8  1  o          0.0000     3779.5300    0.00   1.27850
  12   2   3  8  1  o          0.0000     1566.5101    0.00   1.27840
   8  12   2  8  1  o          0.0000      976.2600    0.00   1.27674
  12   8   1  8  1  o          0.0000      512.0875    0.00   1.27647
   1  15   2  8  1  o          0.0000     1261.8779    0.00   1.27569
   0  16   0  2  1  o          0.0000    52095.8633    0.00   1.27543
   6  12   3  8  1  o          0.0000    12536.2920    0.00   1.27374
   7   3   5  8  1  o          0.0000     3292.3333    0.00   1.27353
   5  15   0  4  1  o          0.0000      124.4964    0.00   1.27300
  10  10   2  8  1  o          0.0000     1358.4556    0.00   1.27166
  10   8   3  8  1  o          0.0000        1.6276    0.00   1.26916
   2  16   0  4  1  o          0.0000    34184.5430    0.00   1.26287
   7  13   2  8  1  o          0.0000    42276.0469    0.00   1.26246
  14   2   1  8  1  o          0.0000        0.5857    0.00   1.26052
   7   9   4  8  1  o          0.0000      228.7802    0.00   1.26042
  10   4   4  8  1  o          0.0000       74.7279    0.00   1.25987
   0  12   4  4  1  o          0.0000      438.7411    0.00   1.25964
   0  14   3  4  1  o          0.0000    10338.6592    0.00   1.25922
   0  16   1  4  1  o          0.0000      994.3694    0.00   1.25737
   8   8   4  8  1  o          0.0000    15853.4863    0.00   1.25520
   5  15   1  8  1  o          0.0000      457.2119    0.00   1.25505
   6  10   4  8  1  o          0.0000      924.2369    0.00   1.25476
  13   7   0  4  1  o          0.0000    10569.8574    0.00   1.25322
  11   9   2  8  1  o          0.0000       40.3132    0.00   1.25269
   5   7   5  8  1  o          0.0000     1394.4237    0.00   1.25107
   3  15   2  8  1  o          0.0000      189.9885    0.00   1.25093
   0   0   6  2  1  o          0.0000    19371.0469    0.00   1.24998
  14   4   0  4  1  o          0.0000       96.8804    0.00   1.24961
  12   4   3  8  1  o          0.0000      405.9029    0.00   1.24932
   6   6   5  8  1  o          0.0000     9271.5918    0.00   1.24856
   1   9   5  8  1  o          0.0000     1453.3522    0.00   1.24801
   2  12   4  8  1  o          0.0000     2332.2668    0.00   1.24754
   5  13   3  8  1  o          0.0000      780.0086    0.00   1.24746
   2  14   3  8  1  o          0.0000     6017.0322    0.00   1.24713
   2  16   1  8  1  o          0.0000        6.2141    0.00   1.24534
   1   1   6  8  1  o          0.0000     4104.3315    0.00   1.24467
   4   8   5  8  1  o          0.0000      175.9620    0.00   1.24294
  11   7   3  8  1  o          0.0000      488.3727    0.00   1.24101
   0   2   6  4  1  o          0.0000    11171.7402    0.00   1.24070
  13   5   2  8  1  o          0.0000    73062.8594    0.00   1.24015
   8   2   5  8  1  o          0.0000      233.7725    0.00   1.23975
   9   7   4  8  1  o          0.0000       42.0487    0.00   1.23949
   5  11   4  8  1  o          0.0000      386.9068    0.00   1.23864
   2   0   6  4  1  o          0.0000     6407.4912    0.00   1.23815
   6  14   2  8  1  o          0.0000        8.2123    0.00   1.23812
  10  12   0  4  1  o          0.0000      636.0516    0.00   1.23757
  13   7   1  8  1  o          0.0000     1141.9259    0.00   1.23608
   9  13   0  4  1  o          0.0000     2530.8027    0.00   1.23598
   7   5   5  8  1  o          0.0000      588.8871    0.00   1.23561
  14   4   1  8  1  o          0.0000     2644.8538    0.00   1.23262
  11   1   4  8  1  o          0.0000     4608.4551    0.00   1.23233
   2   2   6  8  1  o          0.0000      671.5790    0.00   1.22913
  11  11   0  4  1  o          0.0000       13.8551    0.00   1.22888
   4  16   0  4  1  o          0.0000     6423.1865    0.00   1.22731
   1   3   6  8  1  o          0.0000       93.7742    0.00   1.22655
   3   9   5  8  1  o          0.0000    19880.7715    0.00   1.22480
  12   8   2  8  1  o          0.0000    18506.6836    0.00   1.22437
   8  14   0  4  1  o          0.0000     1388.0204    0.00   1.22423
   3   1   6  8  1  o          0.0000       45.4149    0.00   1.22163
  10  12   1  8  1  o          0.0000    12321.6475    0.00   1.22106
   9  13   1  8  1  o          0.0000        8.7078    0.00   1.21953
  14   0   2  4  1  o          0.0000      141.2998    0.00   1.21888
  11   3   4  8  1  o          0.0000       26.0661    0.00   1.21474
  10   6   4  8  1  o          0.0000     1142.4598    0.00   1.21443
   0   4   6  4  1  o          0.0000      697.1499    0.00   1.21407
   4  12   4  8  1  o          0.0000     1658.9562    0.00   1.21323
   8   4   5  8  1  o          0.0000    49188.6367    0.00   1.21317
   4  14   3  8  1  o          0.0000    24046.9395    0.00   1.21285
  11  11   1  8  1  o          0.0000     5041.7500    0.00   1.21271
  13   1   3  8  1  o          0.0000        0.3511    0.00   1.21138
   4  16   1  8  1  o          0.0000      764.8912    0.00   1.21120
  12  10   0  4  1  o          0.0000     2205.2461    0.00   1.21054
  14   2   2  8  1  o          0.0000      587.7014    0.00   1.21028
   0  10   5  4  1  o          0.0000      610.8872    0.00   1.20860
   8  14   1  8  1  o          0.0000     8438.7002    0.00   1.20824
   0  16   2  4  1  o          0.0000    28717.7461    0.00   1.20749
   5  15   2  8  1  o          0.0000    12684.8730    0.00   1.20544
  14   6   0  4  1  o          0.0000      328.2734    0.00   1.20523
  12   6   3  8  1  o          0.0000     7055.4663    0.00   1.20497
   4   0   6  4  1  o          0.0000    29836.7715    0.00   1.20459
   3   3   6  8  1  o          0.0000     1171.9530    0.00   1.20449
   2   4   6  8  1  o          0.0000       53.1886    0.00   1.20322
   7  15   0  4  1  o          0.0000     8433.4912    0.00   1.20317
   1  13   4  8  1  o          0.0000     1461.8542    0.00   1.20095
  15   1   0  4  1  o          0.0000     3439.5227    0.00   1.20086
   9   1   5  8  1  o          0.0000     4769.5176    0.00   1.19897
   2  10   5  8  1  o          0.0000     2093.3162    0.00   1.19790
   1  17   0  4  1  o          0.0000      331.8584    0.00   1.19775
   2  16   2  8  1  o          0.0000    20135.1563    0.00   1.19682
   4   2   6  8  1  o          0.0000     1903.4977    0.00   1.19628
   9  11   3  8  1  o          0.0000      613.1528    0.00   1.19579
  12  10   1  8  1  o          0.0000       72.3488    0.00   1.19507
  13   3   3  8  1  o          0.0000      123.4213    0.00   1.19465
   8  12   3  8  1  o          0.0000    10325.0762    0.00   1.19322
   1   5   6  8  1  o          0.0000    16704.7754    0.00   1.19257
   1  15   3  8  1  o          0.0000     2163.4519    0.00   1.19236
  14   6   1  8  1  o          0.0000     1858.2227    0.00   1.18996
  10  10   3  8  1  o          0.0000      486.0117    0.00   1.18907
  13   7   2  8  1  o          0.0000       41.6490    0.00   1.18860
   7  15   1  8  1  o          0.0000      407.7135    0.00   1.18798
   6   8   5  8  1  o          0.0000       11.2386    0.00   1.18786
  15   1   1  8  1  o          0.0000     1273.9048    0.00   1.18576
  14   4   2  8  1  o          0.0000      206.2903    0.00   1.18552
   7   7   5  8  1  o          0.0000     8616.9414    0.00   1.18460
  15   3   0  4  1  o          0.0000     8367.8398    0.00   1.18456
  13   9   0  4  1  o          0.0000      784.1730    0.00   1.18382
   1  17   1  8  1  o          0.0000     1727.9301    0.00   1.18276
   9   3   5  8  1  o          0.0000       17.5944    0.00   1.18275
   5   9   5  8  1  o          0.0000    38188.4375    0.00   1.18200
  11   5   4  8  1  o          0.0000    25275.9160    0.00   1.18170
   7  13   3  8  1  o          0.0000      743.5047    0.00   1.18153
   3  13   4  8  1  o          0.0000     5452.3926    0.00   1.18022
   5   1   6  8  1  o          0.0000     1900.0171    0.00   1.17916
   8  10   4  8  1  o          0.0000      711.5596    0.00   1.17757
   3  17   0  4  1  o          0.0000      320.4958    0.00   1.17719
  10  12   2  8  1  o          0.0000     7652.5879    0.00   1.17522
   6  16   0  4  1  o          0.0000       42.9927    0.00   1.17419
   7  11   4  8  1  o          0.0000      845.3884    0.00   1.17403
   9  13   2  8  1  o          0.0000    17200.3770    0.00   1.17386
  11   9   3  8  1  o          0.0000     4718.7251    0.00   1.17351
   0   6   6  4  1  o          0.0000     3330.3955    0.00   1.17325
  12   0   4  4  1  o          0.0000    16287.6807    0.00   1.17304
   8   6   5  8  1  o          0.0000     2393.3264    0.00   1.17244
   4   4   6  8  1  o          0.0000      162.8311    0.00   1.17235
   3   5   6  8  1  o          0.0000     2560.6770    0.00   1.17226
   9   9   4  8  1  o          0.0000       21.1932    0.00   1.17223
   3  15   3  8  1  o          0.0000     2291.6978    0.00   1.17206
  15   3   1  8  1  o          0.0000        1.0817    0.00   1.17006
  13   9   1  8  1  o          0.0000       94.1867    0.00   1.16934
  11  11   2  8  1  o          0.0000     9932.6953    0.00   1.16777
   4  10   5  8  1  o          0.0000     1344.5607    0.00   1.16743
   4  16   2  8  1  o          0.0000    11208.2695    0.00   1.16643
  12   2   4  8  1  o          0.0000     3911.3442    0.00   1.16537
   1  11   5  8  1  o          0.0000     6497.9985    0.00   1.16398
   8  14   2  8  1  o          0.0000      400.1883    0.00   1.16378
   5   3   6  8  1  o          0.0000       14.9390    0.00   1.16372
   2   6   6  8  1  o          0.0000      996.7460    0.00   1.16345
  13   5   3  8  1  o          0.0000      108.1451    0.00   1.16319
   3  17   1  8  1  o          0.0000     1870.4213    0.00   1.16295
   6  12   4  8  1  o          0.0000     4640.6152    0.00   1.16184
   6  14   3  8  1  o          0.0000    10087.8193    0.00   1.16151
   6  16   1  8  1  o          0.0000      942.2537    0.00   1.16006
  10   8   4  8  1  o          0.0000     6110.4434    0.00   1.15836
   6   0   6  4  1  o          0.0000       66.3235    0.00   1.15425
  15   5   0  4  1  o          0.0000    32540.8203    0.00   1.15387
   9   5   5  8  1  o          0.0000       57.1442    0.00   1.15219
  12  10   2  8  1  o          0.0000    14434.3291    0.00   1.15200
   0  14   4  4  1  o          0.0000     1294.3115    0.00   1.15078
  14   8   0  4  1  o          0.0000      280.1357    0.00   1.15036
  12   8   3  8  1  o          0.0000      694.1582    0.00   1.15014
  14   6   2  8  1  o          0.0000     1302.8657    0.00   1.14742
   6   2   6  8  1  o          0.0000      971.8256    0.00   1.14693
   1   7   6  8  1  o          0.0000     1531.1652    0.00   1.14651
  10   2   5  8  1  o          0.0000      320.7048    0.00   1.14617
   7  15   2  8  1  o          0.0000      462.0430    0.00   1.14564
   3  11   5  8  1  o          0.0000      586.7291    0.00   1.14507
  15   1   2  8  1  o          0.0000     4648.9795    0.00   1.14365
  12   4   4  8  1  o          0.0000       20.1935    0.00   1.14321
   5  13   4  8  1  o          0.0000    50166.8281    0.00   1.14179
   2  14   4  8  1  o          0.0000      567.4529    0.00   1.14154
   1  17   2  8  1  o          0.0000      314.8775    0.00   1.14097
  15   5   1  8  1  o          0.0000       86.8781    0.00   1.14045
   5  17   0  4  1  o          0.0000        4.3876    0.00   1.13904
  14   2   3  8  1  o          0.0000      206.8159    0.00   1.13843
  14   8   1  8  1  o          0.0000       20.8291    0.00   1.13707
  11   7   4  8  1  o          0.0000     1426.1934    0.00   1.13684
   0  16   3  4  1  o          0.0000      918.5341    0.00   1.13611
   4   6   6  8  1  o          0.0000      979.4103    0.00   1.13547
   5   5   6  8  1  o          0.0000        7.2951    0.00   1.13458
   5  15   3  8  1  o          0.0000      125.3218    0.00   1.13440
  11  13   0  4  1  o          0.0000     1031.1416    0.00   1.13413
  10  14   0  4  1  o          0.0000     3246.2964    0.00   1.13388
   0  18   0  2  1  o          0.0000    16971.6270    0.00   1.13371
  15   3   2  8  1  o          0.0000     3520.1335    0.00   1.12955
  13   9   2  8  1  o          0.0000      551.2417    0.00   1.12890
   3   7   6  8  1  o          0.0000      126.9853    0.00   1.12843
  16   0   0  2  1  o          0.0000    11328.3242    0.00   1.12776
   2  16   3  8  1  o          0.0000     1505.7365    0.00   1.12721
  12  12   0  4  1  o          0.0000     8950.5254    0.00   1.12647
   5  17   1  8  1  o          0.0000     3716.1470    0.00   1.12613
   6   4   6  8  1  o          0.0000       44.5743    0.00   1.12579
   9  15   0  4  1  o          0.0000        0.0825    0.00   1.12575
   7   9   5  8  1  o          0.0000    24184.5801    0.00   1.12547
  10   4   5  8  1  o          0.0000    19783.4941    0.00   1.12508
   0  12   5  4  1  o          0.0000    51901.6211    0.00   1.12491
   2  18   0  4  1  o          0.0000    15877.3018    0.00   1.12487
   3  17   2  8  1  o          0.0000      113.3433    0.00   1.12314
   7   1   6  8  1  o          0.0000       69.6209    0.00   1.12301
   0   8   6  4  1  o          0.0000     7418.0645    0.00   1.12246
   8   8   5  8  1  o          0.0000     2599.9729    0.00   1.12175
   6  10   5  8  1  o          0.0000      794.6282    0.00   1.12143
  11  13   1  8  1  o          0.0000      316.1118    0.00   1.12138
  10  14   1  8  1  o          0.0000     5526.7202    0.00   1.12114
   0  18   1  4  1  o          0.0000      167.2470    0.00   1.12098
  16   2   0  4  1  o          0.0000       28.5292    0.00   1.12093
   6  16   2  8  1  o          0.0000      260.3188    0.00   1.12054
  13   7   3  8  1  o          0.0000    10515.0361    0.00   1.12033
  14   4   3  8  1  o          0.0000     3260.8430    0.00   1.11775
   2  12   5  8  1  o          0.0000     7073.6821    0.00   1.11627
   4  14   4  8  1  o          0.0000      118.6398    0.00   1.11507
  12  12   1  8  1  o          0.0000     4119.0469    0.00   1.11398
  13   1   4  8  1  o          0.0000       27.5828    0.00   1.11393
   2   8   6  8  1  o          0.0000     7070.8652    0.00   1.11387
   9  15   1  8  1  o          0.0000       78.9206    0.00   1.11328
   2  18   1  8  1  o          0.0000      247.5864    0.00   1.11242
  15   7   0  4  1  o          0.0000     2163.8928    0.00   1.11199
  13  11   0  4  1  o          0.0000     9364.5986    0.00   1.11138
   9   7   5  8  1  o          0.0000      101.0910    0.00   1.11049
   8  16   0  4  1  o          0.0000     4873.2563    0.00   1.11022
   5  11   5  8  1  o          0.0000      121.2836    0.00   1.10988
   7   3   6  8  1  o          0.0000      957.6854    0.00   1.10965
  10  12   3  8  1  o          0.0000     1948.2922    0.00   1.10911
  12   6   4  8  1  o          0.0000     1986.1266    0.00   1.10894
  16   2   1  8  1  o          0.0000     1187.5565    0.00   1.10862
   9  13   3  8  1  o          0.0000      306.7430    0.00   1.10796
  11   1   5  8  1  o          0.0000        7.7868    0.00   1.10533
  15   5   2  8  1  o          0.0000    28610.8848    0.00   1.10284
  11  11   3  8  1  o          0.0000     3554.3584    0.00   1.10284
   9  11   4  8  1  o          0.0000     2169.8501    0.00   1.10177
   4  16   3  8  1  o          0.0000      201.3415    0.00   1.10171
  16   4   0  4  1  o          0.0000      399.2404    0.00   1.10118
  13   3   4  8  1  o          0.0000       40.9531    0.00   1.10088
  15   7   1  8  1  o          0.0000        4.5471    0.00   1.09997
  14   8   2  8  1  o          0.0000     2451.3962    0.00   1.09978
   8  12   4  8  1  o          0.0000      160.0181    0.00   1.09976
   4  18   0  4  1  o          0.0000       35.1493    0.00   1.09952
   8  14   3  8  1  o          0.0000     3571.1311    0.00   1.09948
  13  11   1  8  1  o          0.0000      337.5816    0.00   1.09937
   1  15   4  8  1  o          0.0000     1522.5332    0.00   1.09908
   8  16   1  8  1  o          0.0000        4.1912    0.00   1.09825
  10  10   4  8  1  o          0.0000     4426.4316    0.00   1.09651
   5   7   6  8  1  o          0.0000     2177.2058    0.00   1.09470
   8   0   6  4  1  o          0.0000     1592.1957    0.00   1.09331
   6   6   6  8  1  o          0.0000      536.0710    0.00   1.09302
   1   9   6  8  1  o          0.0000       27.9300    0.00   1.09265
  11   3   5  8  1  o          0.0000     1539.7036    0.00   1.09258
  10   6   5  8  1  o          0.0000      308.4361    0.00   1.09236
   4  12   5  8  1  o          0.0000        5.2264    0.00   1.09148
   7  13   4  8  1  o          0.0000        9.9914    0.00   1.09059
   5  17   2  8  1  o          0.0000      305.4377    0.00   1.08987
  14  10   0  4  1  o          0.0000        8.1959    0.00   1.08972
  12  10   3  8  1  o          0.0000        8.1314    0.00   1.08953
  16   4   1  8  1  o          0.0000      278.5718    0.00   1.08950
   4   8   6  8  1  o          0.0000     2045.4513    0.00   1.08924
   7  17   0  4  1  o          0.0000      117.0278    0.00   1.08819
   4  18   1  8  1  o          0.0000        5.6699    0.00   1.08789
   8   2   6  8  1  o          0.0000      128.5141    0.00   1.08709
  14   6   3  8  1  o          0.0000     1609.3822    0.00   1.08565
  11  13   2  8  1  o          0.0000     9283.6299    0.00   1.08557
  10  14   2  8  1  o          0.0000     2983.1501    0.00   1.08535
   0  18   2  4  1  o          0.0000    21188.3750    0.00   1.08520
   7   5   6  8  1  o          0.0000      274.5222    0.00   1.08430
  11   9   4  8  1  o          0.0000       74.9124    0.00   1.08427
   7  15   3  8  1  o          0.0000      497.3385    0.00   1.08414
   3  15   4  8  1  o          0.0000      504.6071    0.00   1.08313
   1  13   5  8  1  o          0.0000       55.4163    0.00   1.08252
  15   1   3  8  1  o          0.0000     1848.4363    0.00   1.08245
   1  17   3  8  1  o          0.0000      196.8280    0.00   1.08018
  16   0   2  4  1  o          0.0000    36325.5117    0.00   1.07998
  12  12   2  8  1  o          0.0000      161.5443    0.00   1.07885
  14  10   1  8  1  o          0.0000        1.7955    0.00   1.07840
   9  15   2  8  1  o          0.0000      341.4403    0.00   1.07821
   2  18   2  8  1  o          0.0000     1197.0847    0.00   1.07743
   3   9   6  8  1  o          0.0000        9.2404    0.00   1.07697
   7  17   1  8  1  o          0.0000     2978.4026    0.00   1.07692
  13   5   4  8  1  o          0.0000      482.7265    0.00   1.07611
   6  14   4  8  1  o          0.0000     1447.3944    0.00   1.07478
  16   2   2  8  1  o          0.0000     4612.6782    0.00   1.07398
   1  19   0  4  1  o          0.0000        6.8752    0.00   1.07214
  15   3   3  8  1  o          0.0000     1001.0972    0.00   1.07047
  16   6   0  4  1  o          0.0000      794.2641    0.00   1.07045
  13   9   3  8  1  o          0.0000     6492.8584    0.00   1.06992
   8   4   6  8  1  o          0.0000       11.8959    0.00   1.06904
  11   5   5  8  1  o          0.0000      574.8708    0.00   1.06836
   1   1   7  8  1  o          0.0000    10520.0771    0.00   1.06806
   3  13   5  8  1  o          0.0000      142.6118    0.00   1.06726
  15   7   2  8  1  o          0.0000      192.9816    0.00   1.06611
   0  10   6  4  1  o          0.0000     7714.3657    0.00   1.06591
  12   8   4  8  1  o          0.0000     9344.3359    0.00   1.06575
  13  11   2  8  1  o          0.0000     1661.1687    0.00   1.06556
   0   2   7  4  1  o          0.0000     1190.0164    0.00   1.06555
   8  10   5  8  1  o          0.0000     2081.7676    0.00   1.06530
   3  17   3  8  1  o          0.0000     4860.2964    0.00   1.06502
   8  16   2  8  1  o          0.0000     1958.4331    0.00   1.06454
   6  16   3  8  1  o          0.0000       20.8017    0.00   1.06280
   7  11   5  8  1  o          0.0000     1688.2034    0.00   1.06268
  15   9   0  4  1  o          0.0000       31.3122    0.00   1.06265
  14   0   4  4  1  o          0.0000      133.0478    0.00   1.06213
   1  19   1  8  1  o          0.0000     1797.7725    0.00   1.06135
   9   9   5  8  1  o          0.0000     2113.7429    0.00   1.06134
   6  18   0  4  1  o          0.0000    11897.9707    0.00   1.06084
  17   1   0  4  1  o          0.0000      556.8903    0.00   1.05999
  16   6   1  8  1  o          0.0000      941.7388    0.00   1.05971
   9   1   6  8  1  o          0.0000      188.4019    0.00   1.05928
   2  10   6  8  1  o          0.0000       12.7385    0.00   1.05855
   2   2   7  8  1  o          0.0000      144.4564    0.00   1.05820
   3  19   0  4  1  o          0.0000      296.1515    0.00   1.05732
  16   4   2  8  1  o          0.0000       74.2289    0.00   1.05656
   1   3   7  8  1  o          0.0000       10.2904    0.00   1.05654
  14   2   4  8  1  o          0.0000      439.2490    0.00   1.05642
  12   2   5  8  1  o          0.0000     1095.6548    0.00   1.05624
   4  18   2  8  1  o          0.0000     1417.3523    0.00   1.05510
   0  16   4  4  1  o          0.0000    13670.6875    0.00   1.05457
   6  12   5  8  1  o          0.0000       11.7564    0.00   1.05361
   3   1   7  8  1  o          0.0000     4474.3853    0.00   1.05340
   5  15   4  8  1  o          0.0000     1414.5654    0.00   1.05319
  15   9   1  8  1  o          0.0000        4.9923    0.00   1.05215
   6   8   6  8  1  o          0.0000     1119.0752    0.00   1.05160
  10   8   5  8  1  o          0.0000     1880.2102    0.00   1.05101
   6  18   1  8  1  o          0.0000      595.3674    0.00   1.05038
  17   1   1  8  1  o          0.0000     2123.0527    0.00   1.04956
   7   7   6  8  1  o          0.0000     1965.4395    0.00   1.04933
  17   3   0  4  1  o          0.0000      289.8060    0.00   1.04873
   0   4   7  4  1  o          0.0000    21788.3418    0.00   1.04854
   9   3   6  8  1  o          0.0000      835.8024    0.00   1.04805
  15   5   3  8  1  o          0.0000      477.2559    0.00   1.04766
   5   9   6  8  1  o          0.0000        0.0356    0.00   1.04753
   2  16   4  8  1  o          0.0000     7131.0044    0.00   1.04743
  11  15   0  4  1  o          0.0000     3311.4004    0.00   1.04718
   3  19   1  8  1  o          0.0000      322.4193    0.00   1.04696
  12  14   0  4  1  o          0.0000     2081.1975    0.00   1.04660
  14  10   2  8  1  o          0.0000      531.5189    0.00   1.04643
   0  14   5  4  1  o          0.0000    17127.0000    0.00   1.04535
   7  17   2  8  1  o          0.0000       48.3247    0.00   1.04508
  14   8   3  8  1  o          0.0000       32.1104    0.00   1.04503
   3   3   7  8  1  o          0.0000      849.4010    0.00   1.04235
  13   7   4  8  1  o          0.0000     4691.8696    0.00   1.04191
   2   4   7  8  1  o          0.0000     7027.1812    0.00   1.04153
  10  16   0  4  1  o          0.0000     9533.6104    0.00   1.04151
   8   6   6  8  1  o          0.0000        0.0469    0.00   1.04086
  14   4   4  8  1  o          0.0000        1.2574    0.00   1.03983
  13  13   0  4  1  o          0.0000    30622.9551    0.00   1.03982
  12   4   5  8  1  o          0.0000     5994.2231    0.00   1.03966
  17   3   1  8  1  o          0.0000       91.3476    0.00   1.03863
   5  13   5  8  1  o          0.0000     1008.2060    0.00   1.03859
   2  14   5  8  1  o          0.0000     2530.7407    0.00   1.03840
   4  10   6  8  1  o          0.0000     2153.3074    0.00   1.03734
  11  15   1  8  1  o          0.0000      674.9924    0.00   1.03712
   4   2   7  8  1  o          0.0000      578.5511    0.00   1.03701
  12  14   1  8  1  o          0.0000     6627.3096    0.00   1.03656
   5  17   3  8  1  o          0.0000    18605.4395    0.00   1.03652
   1  11   6  8  1  o          0.0000     1185.9796    0.00   1.03492
  11   7   5  8  1  o          0.0000     8611.0166    0.00   1.03486
   1   5   7  8  1  o          0.0000       80.9330    0.00   1.03459
  10  12   4  8  1  o          0.0000       26.2656    0.00   1.03286
  11  13   3  8  1  o          0.0000      310.4405    0.00   1.03282
  10  14   3  8  1  o          0.0000       19.7986    0.00   1.03263
   0  18   3  4  1  o          0.0000      274.6107    0.00   1.03250
   9  13   4  8  1  o          0.0000      103.2841    0.00   1.03194
  10  16   1  8  1  o          0.0000      335.7709    0.00   1.03161
  16   8   0  4  1  o          0.0000    19025.4629    0.00   1.03145
   1  19   2  8  1  o          0.0000       15.3111    0.00   1.03084
  13  13   1  8  1  o          0.0000      141.2210    0.00   1.02997
   9  17   0  4  1  o          0.0000       96.0983    0.00   1.02991
   5  19   0  4  1  o          0.0000       93.6272    0.00   1.02942
  16   6   2  8  1  o          0.0000     2007.1534    0.00   1.02933
  11  11   4  8  1  o          0.0000      287.2612    0.00   1.02779
  10   0   6  4  1  o          0.0000    13041.7920    0.00   1.02752
  17   5   0  4  1  o          0.0000     8978.4443    0.00   1.02725
  14  12   0  4  1  o          0.0000      403.7306    0.00   1.02718
  12  12   3  8  1  o          0.0000    15509.8408    0.00   1.02702
   4  16   4  8  1  o          0.0000     1904.9264    0.00   1.02688
   9   5   6  8  1  o          0.0000     2784.8477    0.00   1.02661
   9  15   3  8  1  o          0.0000      232.0133    0.00   1.02648
   2  18   3  8  1  o          0.0000       52.8359    0.00   1.02581
   5   1   7  8  1  o          0.0000     1016.1835    0.00   1.02580
   8  14   4  8  1  o          0.0000      947.3186    0.00   1.02507
  16   2   3  8  1  o          0.0000     1385.5923    0.00   1.02282
  15   9   2  8  1  o          0.0000      358.4550    0.00   1.02240
  10   2   6  8  1  o          0.0000     3065.1880    0.00   1.02235
   0   6   7  4  1  o          0.0000     5432.1753    0.00   1.02190
  16   8   1  8  1  o          0.0000      140.5076    0.00   1.02183
   3  11   6  8  1  o          0.0000      164.9541    0.00   1.02157
   4   4   7  8  1  o          0.0000     2003.3124    0.00   1.02131
   3   5   7  8  1  o          0.0000      648.8658    0.00   1.02125
   6  18   2  8  1  o          0.0000     2461.3801    0.00   1.02078
   0  20   0  2  1  o          0.0000     6428.6724    0.00   1.02034
   9  17   1  8  1  o          0.0000      246.2006    0.00   1.02034
  17   1   2  8  1  o          0.0000       65.4895    0.00   1.02002
   5  19   1  8  1  o          0.0000     2981.6924    0.00   1.01986
   4  14   5  8  1  o          0.0000       16.7832    0.00   1.01836
  17   5   1  8  1  o          0.0000       24.9695    0.00   1.01775
  14  12   1  8  1  o          0.0000        4.0918    0.00   1.01768
   3  19   2  8  1  o          0.0000       62.5972    0.00   1.01764
  13   1   5  8  1  o          0.0000    14421.4297    0.00   1.01749
  12  10   4  8  1  o          0.0000      596.5170    0.00   1.01699
  15   7   3  8  1  o          0.0000     3498.3606    0.00   1.01602
   5   3   7  8  1  o          0.0000     3087.6526    0.00   1.01559
  13  11   3  8  1  o          0.0000     2833.5979    0.00   1.01554
   2   6   7  8  1  o          0.0000      611.7344    0.00   1.01541
   8  16   3  8  1  o          0.0000      950.3530    0.00   1.01466
   2  20   0  4  1  o          0.0000      571.9219    0.00   1.01388
  14   6   4  8  1  o          0.0000       59.2143    0.00   1.01384
  12   6   5  8  1  o          0.0000     4287.5435    0.00   1.01369
   8  18   0  4  1  o          0.0000     1383.4530    0.00   1.01295
   7  15   4  8  1  o          0.0000     2313.2673    0.00   1.01261
  15   1   4  8  1  o          0.0000      519.0204    0.00   1.01123
   0  20   1  4  1  o          0.0000        8.8432    0.00   1.01103
  17   3   2  8  1  o          0.0000      571.2637    0.00   1.00998
   1  17   4  8  1  o          0.0000      278.8214    0.00   1.00938
  15  11   0  4  1  o          0.0000     3010.4568    0.00   1.00932
  11  15   2  8  1  o          0.0000       27.7997    0.00   1.00859
   9  11   5  8  1  o          0.0000     1332.3820    0.00   1.00820
  12  14   2  8  1  o          0.0000     1727.5543    0.00   1.00807
  16   4   3  8  1  o          0.0000      344.9911    0.00   1.00775
   7   9   6  8  1  o          0.0000       16.6846    0.00   1.00757
  13   3   5  8  1  o          0.0000     1076.0447    0.00   1.00752
  10   4   6  8  1  o          0.0000      162.4750    0.00   1.00729
   0  12   6  4  1  o          0.0000     2149.4255    0.00   1.00717
   8  12   5  8  1  o          0.0000    20478.9512    0.00   1.00666
   4  18   3  8  1  o          0.0000        0.0265    0.00   1.00647
   1  15   5  8  1  o          0.0000       59.0068    0.00   1.00614
   8   8   6  8  1  o          0.0000     3960.9656    0.00   1.00490
   2  20   1  8  1  o          0.0000     1058.4999    0.00   1.00474
   6  10   6  8  1  o          0.0000        8.9991    0.00   1.00467
   6   2   7  8  1  o          0.0000      739.0453    0.00   1.00437
  10  10   5  8  1  o          0.0000      279.7654    0.00   1.00416
   1   7   7  8  1  o          0.0000      721.4318    0.00   1.00408
   8  18   1  8  1  o          0.0000       71.7849    0.00   1.00384
  10  16   2  8  1  o          0.0000     4498.3291    0.00   1.00353
  18   0   0  2  1  o          0.0000    35012.8281    0.00   1.00245
  13  13   2  8  1  o          0.0000     4155.5117    0.00   1.00201
  15   3   4  8  1  o          0.0000      380.7798    0.00   1.00144
  13   9   4  8  1  o          0.0000      193.2855    0.00   1.00099
   2  12   6  8  1  o          0.0000      664.9991    0.00   1.00095
  15  11   1  8  1  o          0.0000        0.6863    0.00   1.00031
   7  13   5  8  1  o          0.0000      138.2855    0.00   0.99961
  14  10   3  8  1  o          0.0000       95.4022    0.00   0.99894
   7  17   3  8  1  o          0.0000     7273.8403    0.00   0.99777
  18   2   0  4  1  o          0.0000     2212.6699    0.00   0.99765
  17   7   0  4  1  o          0.0000     1232.9058    0.00   0.99737
   3  17   4  8  1  o          0.0000       17.5495    0.00   0.99697
   9   7   6  8  1  o          0.0000       37.7762    0.00   0.99678
   4   6   7  8  1  o          0.0000      384.8084    0.00   0.99665
   5  11   6  8  1  o          0.0000     2989.6584    0.00   0.99634
   5   5   7  8  1  o          0.0000      591.1627    0.00   0.99604
   4  20   0  4  1  o          0.0000      113.9276    0.00   0.99520
   6  16   4  8  1  o          0.0000      327.8460    0.00   0.99516
  11   9   5  8  1  o          0.0000    13029.6689    0.00   0.99474
  16   8   2  8  1  o          0.0000     1428.6677    0.00   0.99452
   3  15   5  8  1  o          0.0000      272.8107    0.00   0.99386
   9  17   2  8  1  o          0.0000       28.0694    0.00   0.99313
  11   1   6  8  1  o          0.0000      656.6367    0.00   0.99304
   5  19   2  8  1  o          0.0000     1742.0504    0.00   0.99269
   3   7   7  8  1  o          0.0000     2068.5237    0.00   0.99187
   7  19   0  4  1  o          0.0000     1408.0844    0.00   0.99143
  17   5   2  8  1  o          0.0000     1270.2861    0.00   0.99075
  14  12   2  8  1  o          0.0000      242.8477    0.00   0.99069
   6   4   7  8  1  o          0.0000      532.8538    0.00   0.99008
  18   2   1  8  1  o          0.0000      317.3773    0.00   0.98894
  17   7   1  8  1  o          0.0000     3634.0720    0.00   0.98867
  13   5   5  8  1  o          0.0000     1250.6112    0.00   0.98843
   7   1   7  8  1  o          0.0000    13706.9385    0.00   0.98819
   0   8   7  4  1  o          0.0000        4.0321    0.00   0.98781
   6  14   5  8  1  o          0.0000     1105.5835    0.00   0.98740
  16  10   0  4  1  o          0.0000     1302.8356    0.00   0.98706
   4  20   1  8  1  o          0.0000      245.4068    0.00   0.98655
   1  19   3  8  1  o          0.0000     5235.1450    0.00   0.98535
   0  20   2  4  1  o          0.0000      140.7937    0.00   0.98455
  16   6   3  8  1  o          0.0000     1402.8196    0.00   0.98403
  11   3   6  8  1  o          0.0000      138.6126    0.00   0.98377
  18   4   0  4  1  o          0.0000      310.7486    0.00   0.98364
  10   6   6  8  1  o          0.0000     1140.7500    0.00   0.98361
   4  12   6  8  1  o          0.0000      163.4533    0.00   0.98297
   7  19   1  8  1  o          0.0000     4334.1714    0.00   0.98288
  15   5   4  8  1  o          0.0000     2431.3074    0.00   0.98269
   2   8   7  8  1  o          0.0000      909.8206    0.00   0.98194
  14   8   4  8  1  o          0.0000      156.8799    0.00   0.98052
  12   8   5  8  1  o          0.0000       98.3672    0.00   0.98038
   7   3   7  8  1  o          0.0000      672.2824    0.00   0.97905
   2  20   2  8  1  o          0.0000     2868.4546    0.00   0.97873
  16  10   1  8  1  o          0.0000      168.2324    0.00   0.97862
  15   9   3  8  1  o          0.0000     8311.9424    0.00   0.97797
   8  18   2  8  1  o          0.0000     3079.8840    0.00   0.97790
   6  18   3  8  1  o          0.0000       64.8063    0.00   0.97655
   1  13   6  8  1  o          0.0000     1631.1500    0.00   0.97640
  17   1   3  8  1  o          0.0000    17116.3184    0.00   0.97589
  18   4   1  8  1  o          0.0000       24.6530    0.00   0.97529
  15  11   2  8  1  o          0.0000     1107.5817    0.00   0.97464
   3  19   3  8  1  o          0.0000     1753.8962    0.00   0.97380
   5  17   4  8  1  o          0.0000       37.7282    0.00   0.97348
  14   2   5  8  1  o          0.0000       19.8904    0.00   0.97310
  12  16   0  4  1  o          0.0000     1706.8677    0.00   0.97266
   0  16   5  4  1  o          0.0000     1600.5750    0.00   0.97165
  13  15   0  4  1  o          0.0000      139.3269    0.00   0.97158
   5  15   5  8  1  o          0.0000      686.9169    0.00   0.97058
  11  13   4  8  1  o          0.0000     1402.7640    0.00   0.97041
   1  21   0  4  1  o          0.0000     5464.1357    0.00   0.97035
  10  14   4  8  1  o          0.0000      738.9072    0.00   0.97026
   0  18   4  4  1  o          0.0000        6.2999    0.00   0.97015
   5   7   7  8  1  o          0.0000     7579.3633    0.00   0.96873
  11  17   0  4  1  o          0.0000      261.8665    0.00   0.96872
  18   0   2  4  1  o          0.0000     5863.5010    0.00   0.96845
   6   6   7  8  1  o          0.0000     1398.7786    0.00   0.96757
   1   9   7  8  1  o          0.0000      664.8697    0.00   0.96731
  17   3   3  8  1  o          0.0000      634.9292    0.00   0.96708
  16   0   4  4  1  o          0.0000       41.8191    0.00   0.96641
   6  20   0  4  1  o          0.0000     2124.7981    0.00   0.96624
   2  16   5  8  1  o          0.0000      991.0194    0.00   0.96607
  11   5   6  8  1  o          0.0000     1418.3948    0.00   0.96597
  11  15   3  8  1  o          0.0000      668.3175    0.00   0.96586
  12  12   4  8  1  o          0.0000     2858.9485    0.00   0.96560
  14  14   0  4  1  o          0.0000        9.1396    0.00   0.96555
  12  14   3  8  1  o          0.0000     4078.6938    0.00   0.96541
   3  13   6  8  1  o          0.0000     1008.6751    0.00   0.96516
   9  15   4  8  1  o          0.0000      450.6255    0.00   0.96515
   4   8   7  8  1  o          0.0000      357.8365    0.00   0.96495
   2  18   4  8  1  o          0.0000     4392.9692    0.00   0.96459
  12  16   1  8  1  o          0.0000        9.1933    0.00   0.96458
  18   2   2  8  1  o          0.0000      111.3473    0.00   0.96411
  17   7   2  8  1  o          0.0000     3999.0991    0.00   0.96386
   8  10   6  8  1  o          0.0000      274.1818    0.00   0.96371
  13  15   1  8  1  o          0.0000      181.8078    0.00   0.96353
   8   2   7  8  1  o          0.0000      422.1105    0.00   0.96345
   1  21   1  8  1  o          0.0000      160.6121    0.00   0.96233
  16   2   4  8  1  o          0.0000      500.3593    0.00   0.96211
   4  20   2  8  1  o          0.0000     2380.3486    0.00   0.96190
   7  11   6  8  1  o          0.0000       19.3633    0.00   0.96177
  13   7   5  8  1  o          0.0000      264.9984    0.00   0.96172
  18   6   0  4  1  o          0.0000     3900.6313    0.00   0.96156
   7   5   7  8  1  o          0.0000      649.2777    0.00   0.96151
  10  16   3  8  1  o          0.0000      491.5069    0.00   0.96142
  17   9   0  4  1  o          0.0000       41.3361    0.00   0.96131
  12   0   6  4  1  o          0.0000     1191.2731    0.00   0.96123
   9   9   6  8  1  o          0.0000       22.7256    0.00   0.96078
  11  17   1  8  1  o          0.0000     4054.5034    0.00   0.96074
  14   4   5  8  1  o          0.0000      407.4207    0.00   0.96009
  13  13   3  8  1  o          0.0000        0.0922    0.00   0.96008
  10  18   0  4  1  o          0.0000     1959.1561    0.00   0.95996
   3  21   0  4  1  o          0.0000    19492.9629    0.00   0.95931
   7  19   2  8  1  o          0.0000       13.7100    0.00   0.95849
   6  20   1  8  1  o          0.0000     1545.2936    0.00   0.95832
  14  14   1  8  1  o          0.0000      171.2609    0.00   0.95764
  12   2   6  8  1  o          0.0000      415.3332    0.00   0.95699
  15   7   4  8  1  o          0.0000      765.1334    0.00   0.95644
   3   9   7  8  1  o          0.0000     5139.5649    0.00   0.95638
  13  11   4  8  1  o          0.0000     2560.1821    0.00   0.95604
   8  16   4  8  1  o          0.0000      173.5654    0.00   0.95531
   6  12   6  8  1  o          0.0000     1137.7911    0.00   0.95503
  15  13   0  4  1  o          0.0000    28744.2813    0.00   0.95482
  10  12   5  8  1  o          0.0000    26842.0547    0.00   0.95460
  16  10   2  8  1  o          0.0000     1590.6008    0.00   0.95455
   9  13   5  8  1  o          0.0000        0.0540    0.00   0.95387
  18   6   1  8  1  o          0.0000     2177.1353    0.00   0.95375
  17   9   1  8  1  o          0.0000     1770.3961    0.00   0.95351
  16   8   3  8  1  o          0.0000      186.3979    0.00   0.95348
  10   8   6  8  1  o          0.0000      593.6830    0.00   0.95310
   9  17   3  8  1  o          0.0000       87.5453    0.00   0.95227
  10  18   1  8  1  o          0.0000        9.7160    0.00   0.95219
   5  19   3  8  1  o          0.0000     6510.5557    0.00   0.95188
   3  21   1  8  1  o          0.0000       16.0244    0.00   0.95156
  18   4   2  8  1  o          0.0000       71.8895    0.00   0.95146
   8   4   7  8  1  o          0.0000    13105.1338    0.00   0.95082
  11  11   5  8  1  o          0.0000     3495.7402    0.00   0.95059
  17   5   3  8  1  o          0.0000     1112.6038    0.00   0.95016
  14  12   3  8  1  o          0.0000       34.9751    0.00   0.95011
   4  16   5  8  1  o          0.0000      633.1605    0.00   0.94987
  16   4   4  8  1  o          0.0000       41.5220    0.00   0.94953
   0  14   6  4  1  o          0.0000       14.3525    0.00   0.94887
  19   1   0  4  1  o          0.0000       16.9966    0.00   0.94867
   0  10   7  4  1  o          0.0000      908.8305    0.00   0.94861
   4  18   4  8  1  o          0.0000     1101.1915    0.00   0.94846
   8  14   5  8  1  o          0.0000    14786.4883    0.00   0.94844
  15  13   1  8  1  o          0.0000       88.9665    0.00   0.94718
   9  19   0  4  1  o          0.0000      142.3188    0.00   0.94675
   0  20   3  4  1  o          0.0000    10422.2598    0.00   0.94469
  12   4   6  8  1  o          0.0000       51.7624    0.00   0.94461
   9   1   7  8  1  o          0.0000     2672.7620    0.00   0.94393
   5  13   6  8  1  o          0.0000     3882.4443    0.00   0.94380
   2  14   6  8  1  o          0.0000        4.6540    0.00   0.94366
   2  10   7  8  1  o          0.0000      592.2016    0.00   0.94341
  14  10   4  8  1  o          0.0000      172.4734    0.00   0.94215
  12  10   5  8  1  o          0.0000       63.7913    0.00   0.94203
  12  16   2  8  1  o          0.0000     1452.7957    0.00   0.94150
  19   1   1  8  1  o          0.0000      382.9507    0.00   0.94117
   7  17   4  8  1  o          0.0000       21.7312    0.00   0.94117
  11   7   6  8  1  o          0.0000     1738.1416    0.00   0.94100
  19   3   0  4  1  o          0.0000      723.7877    0.00   0.94057
  13  15   2  8  1  o          0.0000       59.7803    0.00   0.94053
  16  12   0  4  1  o          0.0000     2759.3171    0.00   0.93987
   2  20   3  8  1  o          0.0000     1480.6930    0.00   0.93955
  14   6   5  8  1  o          0.0000      828.7769    0.00   0.93952
   1  21   2  8  1  o          0.0000      144.8010    0.00   0.93941
   9  19   1  8  1  o          0.0000      304.2272    0.00   0.93930
   8  18   3  8  1  o          0.0000      301.7749    0.00   0.93881
   7  15   5  8  1  o          0.0000       14.5169    0.00   0.93854
   6   8   7  8  1  o          0.0000      892.0388    0.00   0.93848
   5  21   0  4  1  o          0.0000     8596.0625    0.00   0.93833
  11  17   2  8  1  o          0.0000       94.7631    0.00   0.93793
   0   0   8  2  1  o          0.0000      849.4979    0.00   0.93748
  15   1   5  8  1  o          0.0000     7421.9438    0.00   0.93744
   7   7   7  8  1  o          0.0000        1.7409    0.00   0.93687
   1  17   5  8  1  o          0.0000     3947.0825    0.00   0.93596
   9   3   7  8  1  o          0.0000       34.4706    0.00   0.93596
  15  11   3  8  1  o          0.0000     1090.2917    0.00   0.93592
   6  20   2  8  1  o          0.0000     4964.0693    0.00   0.93568
   5   9   7  8  1  o          0.0000    14323.1162    0.00   0.93559
   1   1   8  8  1  o          0.0000      316.0513    0.00   0.93524
  14  14   2  8  1  o          0.0000      559.9048    0.00   0.93505
   0   2   8  4  1  o          0.0000      310.3417    0.00   0.93355
  19   3   1  8  1  o          0.0000       12.3553    0.00   0.93326
  18   8   0  4  1  o          0.0000     4595.2212    0.00   0.93299
  16  12   1  8  1  o          0.0000      946.8860    0.00   0.93257
   2   0   8  4  1  o          0.0000     4155.1157    0.00   0.93246
  18   6   2  8  1  o          0.0000       70.2850    0.00   0.93142
  17   9   2  8  1  o          0.0000       97.5231    0.00   0.93120
   5  21   1  8  1  o          0.0000     1208.3114    0.00   0.93107
   8   6   7  8  1  o          0.0000     1114.6887    0.00   0.93082
   1  19   4  8  1  o          0.0000       64.7395    0.00   0.93072
  10  18   2  8  1  o          0.0000     8494.7725    0.00   0.92997
   8  20   0  4  1  o          0.0000     6619.2510    0.00   0.92964
  15   3   5  8  1  o          0.0000      388.5154    0.00   0.92963
  16   6   4  8  1  o          0.0000       44.4674    0.00   0.92961
   3  21   2  8  1  o          0.0000     6952.6108    0.00   0.92938
  13   9   5  8  1  o          0.0000     6116.8555    0.00   0.92927
   2   2   8  8  1  o          0.0000      534.8446    0.00   0.92859
   4  14   6  8  1  o          0.0000       22.9209    0.00   0.92855
   4  10   7  8  1  o          0.0000      140.5801    0.00   0.92831
  13   1   6  8  1  o          0.0000      142.7883    0.00   0.92788
   0  22   0  2  1  o          0.0000      427.2127    0.00   0.92758
   1   3   8  8  1  o          0.0000      733.3719    0.00   0.92748
  18   2   3  8  1  o          0.0000      449.5649    0.00   0.92659
   1  11   7  8  1  o          0.0000      952.5285    0.00   0.92657
  17   7   3  8  1  o          0.0000      322.1462    0.00   0.92637
   3  17   5  8  1  o          0.0000    12288.1025    0.00   0.92605
  18   8   1  8  1  o          0.0000      887.4926    0.00   0.92586
   3   1   8  8  1  o          0.0000      216.8250    0.00   0.92535
  15  13   2  8  1  o          0.0000     6450.4326    0.00   0.92530
  12   6   6  8  1  o          0.0000      772.3032    0.00   0.92500
  19   5   0  4  1  o          0.0000     1596.9293    0.00   0.92498
   4  20   3  8  1  o          0.0000      117.5333    0.00   0.92463
   6  16   5  8  1  o          0.0000      820.2609    0.00   0.92459
  15   9   4  8  1  o          0.0000        0.1234    0.00   0.92450
   6  18   4  8  1  o          0.0000     5550.4800    0.00   0.92330
  17   1   4  8  1  o          0.0000      938.9014    0.00   0.92274
   2  22   0  4  1  o          0.0000      807.9908    0.00   0.92272
   8  20   1  8  1  o          0.0000        0.5162    0.00   0.92258
   0   4   8  4  1  o          0.0000       72.1652    0.00   0.92204
   7  19   3  8  1  o          0.0000     1158.1530    0.00   0.92160
  17  11   0  4  1  o          0.0000      954.8115    0.00   0.92129
   3  19   4  8  1  o          0.0000       55.7094    0.00   0.92098
   9  11   6  8  1  o          0.0000        0.0594    0.00   0.92082
   9   5   7  8  1  o          0.0000       47.9714    0.00   0.92059
   0  22   1  4  1  o          0.0000      690.4252    0.00   0.92057
  13   3   6  8  1  o          0.0000     1207.2867    0.00   0.92031
  19   1   2  8  1  o          0.0000      375.6583    0.00   0.91969
   8  12   6  8  1  o          0.0000      108.4695    0.00   0.91965
   1  15   6  8  1  o          0.0000        2.2166    0.00   0.91925
  16  10   3  8  1  o          0.0000      122.8381    0.00   0.91809
  19   5   1  8  1  o          0.0000        3.7319    0.00   0.91803
   9  19   2  8  1  o          0.0000        9.7210    0.00   0.91795
   4   0   8  4  1  o          0.0000       24.6284    0.00   0.91787
   3   3   8  8  1  o          0.0000     1774.0507    0.00   0.91783
  10  10   6  8  1  o          0.0000      369.2817    0.00   0.91774
  10   2   7  8  1  o          0.0000     1205.3728    0.00   0.91752
   2   4   8  8  1  o          0.0000       19.1920    0.00   0.91727
   3  11   7  8  1  o          0.0000      775.3741    0.00   0.91695
   2  22   1  8  1  o          0.0000      985.0992    0.00   0.91581
  18   4   3  8  1  o          0.0000    16361.5713    0.00   0.91534
  17   3   4  8  1  o          0.0000      294.0246    0.00   0.91528
  15   5   5  8  1  o          0.0000      577.6833    0.00   0.91457
  17  11   1  8  1  o          0.0000      925.9075    0.00   0.91441
   7  13   6  8  1  o          0.0000     5911.6855    0.00   0.91427
  11  15   4  8  1  o          0.0000     1022.1619    0.00   0.91425
   4   2   8  8  1  o          0.0000      511.2000    0.00   0.91418
  12  14   4  8  1  o          0.0000      414.6779    0.00   0.91387
  14   8   5  8  1  o          0.0000       15.7258    0.00   0.91282
   1   5   8  8  1  o          0.0000       22.9320    0.00   0.91252
  19   3   2  8  1  o          0.0000      558.5008    0.00   0.91231
  16  12   2  8  1  o          0.0000      161.4047    0.00   0.91167
  11   9   6  8  1  o          0.0000        0.0941    0.00   0.91054
  10  16   4  8  1  o          0.0000      687.0652    0.00   0.91047
   5  21   2  8  1  o          0.0000    13225.3408    0.00   0.91027
   3  15   6  8  1  o          0.0000       40.4798    0.00   0.90986
  13  13   4  8  1  o          0.0000     4117.7505    0.00   0.90934
   7  21   0  4  1  o          0.0000    10798.0713    0.00   0.90929
   4  22   0  4  1  o          0.0000      241.0786    0.00   0.90857
  13  17   0  4  1  o          0.0000      639.8283    0.00   0.90795
   5  17   5  8  1  o          0.0000    18343.3281    0.00   0.90713
   7   9   7  8  1  o          0.0000     4830.5479    0.00   0.90679
  10   4   7  8  1  o          0.0000    18304.2207    0.00   0.90659
  14  16   0  4  1  o          0.0000      316.4084    0.00   0.90658
   0  12   7  4  1  o          0.0000     1164.4443    0.00   0.90650
   5   1   8  8  1  o          0.0000      198.4503    0.00   0.90647
  12  16   3  8  1  o          0.0000      552.0089    0.00   0.90647
  13   5   6  8  1  o          0.0000     1191.8757    0.00   0.90569
  13  15   3  8  1  o          0.0000      381.3509    0.00   0.90560
  18   8   2  8  1  o          0.0000    22954.8301    0.00   0.90539
  12  18   0  4  1  o          0.0000    13257.8047    0.00   0.90525
   6  14   6  8  1  o          0.0000       22.9126    0.00   0.90489
   8   8   7  8  1  o          0.0000      140.9454    0.00   0.90484
   6  10   7  8  1  o          0.0000        2.3851    0.00   0.90467
  11  13   5  8  1  o          0.0000      239.0277    0.00   0.90465
   1  21   3  8  1  o          0.0000      248.0852    0.00   0.90459
  10  14   5  8  1  o          0.0000     8897.2588    0.00   0.90452
   0  18   5  4  1  o          0.0000      483.2915    0.00   0.90444
   0   6   8  4  1  o          0.0000      469.8777    0.00   0.90378
  16   8   4  8  1  o          0.0000     2409.6565    0.00   0.90373
   4   4   8  8  1  o          0.0000        1.0864    0.00   0.90337
   3   5   8  8  1  o          0.0000     4872.4458    0.00   0.90333
  11  17   3  8  1  o          0.0000      654.5839    0.00   0.90328
  19   7   0  4  1  o          0.0000      265.8677    0.00   0.90299
   9  17   4  8  1  o          0.0000        6.2574    0.00   0.90269
   7  21   1  8  1  o          0.0000      394.3382    0.00   0.90268
   5  19   4  8  1  o          0.0000       91.2280    0.00   0.90236
   8  20   2  8  1  o          0.0000      185.4209    0.00   0.90233
  20   0   0  2  1  o          0.0000     8130.5352    0.00   0.90221
   4  22   1  8  1  o          0.0000      307.9116    0.00   0.90198
   2  12   7  8  1  o          0.0000    10615.7979    0.00   0.90196
  13  17   1  8  1  o          0.0000       10.0853    0.00   0.90137
   6  20   3  8  1  o          0.0000       12.1073    0.00   0.90127
  15  15   0  4  1  o          0.0000       29.1977    0.00   0.90118
  17   5   4  8  1  o          0.0000     5962.1436    0.00   0.90090
  14  12   4  8  1  o          0.0000        3.5350    0.00   0.90085
  12  12   5  8  1  o          0.0000        7.8948    0.00   0.90075
  14  14   3  8  1  o          0.0000      332.4472    0.00   0.90070
   0  22   2  4  1  o          0.0000      210.4609    0.00   0.90044
   9  15   5  8  1  o          0.0000       83.1157    0.00   0.90038
  14  16   1  8  1  o          0.0000      104.7106    0.00   0.90003
   2  18   5  8  1  o          0.0000      578.1312    0.00   0.89992
  18  10   0  4  1  o          0.0000      103.3490    0.00   0.89975
  12   8   6  8  1  o          0.0000      735.7770    0.00   0.89949
   5   3   8  8  1  o          0.0000       38.1366    0.00   0.89940
   2   6   8  8  1  o          0.0000      102.1426    0.00   0.89928
   9   7   7  8  1  o          0.0000        0.2707    0.00   0.89890
  12  18   1  8  1  o          0.0000       20.7141    0.00   0.89872
  20   2   0  4  1  o          0.0000      548.0837    0.00   0.89870
   5  11   7  8  1  o          0.0000     2939.6699    0.00   0.89857
  11  19   0  4  1  o          0.0000       32.0691    0.00   0.89857
  19   5   2  8  1  o          0.0000      540.8940    0.00   0.89806
  16   2   5  8  1  o          0.0000      484.1378    0.00   0.89791
  18   6   3  8  1  o          0.0000     5484.0815    0.00   0.89746
  14   0   6  4  1  o          0.0000       21.1127    0.00   0.89730
  17   9   3  8  1  o          0.0000     4479.9834    0.00   0.89726
  19   7   1  8  1  o          0.0000      762.1790    0.00   0.89651
   0  20   4  4  1  o          0.0000     3775.7639    0.00   0.89623
  10  18   3  8  1  o          0.0000      614.0710    0.00   0.89616
  11   1   7  8  1  o          0.0000     8966.7637    0.00   0.89616
   2  22   2  8  1  o          0.0000      375.2947    0.00   0.89599
   3  21   3  8  1  o          0.0000      211.8927    0.00   0.89564
   6   0   8  4  1  o          0.0000    10352.5400    0.00   0.89500
  15  15   1  8  1  o          0.0000      379.0726    0.00   0.89474
  17  11   2  8  1  o          0.0000     3156.9067    0.00   0.89468
  14   2   6  8  1  o          0.0000      294.8477    0.00   0.89385
  18  10   1  8  1  o          0.0000       11.6793    0.00   0.89335
  15   7   5  8  1  o          0.0000     1389.7362    0.00   0.89329
  13  11   5  8  1  o          0.0000        7.6561    0.00   0.89297
   0  16   6  4  1  o          0.0000      154.3692    0.00   0.89273
   8  16   5  8  1  o          0.0000     1029.7476    0.00   0.89237
  20   2   1  8  1  o          0.0000       33.7153    0.00   0.89232
  11  19   1  8  1  o          0.0000     3752.9602    0.00   0.89219
  15  13   3  8  1  o          0.0000        0.0690    0.00   0.89198
  16  14   0  4  1  o          0.0000      181.6118    0.00   0.89196
   5  15   6  8  1  o          0.0000     1816.8253    0.00   0.89190
   2  20   4  8  1  o          0.0000       43.7095    0.00   0.89184
   6   2   8  8  1  o          0.0000     1539.4674    0.00   0.89158
   1   7   8  8  1  o          0.0000     1617.2401    0.00   0.89138
   8  18   4  8  1  o          0.0000      649.0324    0.00   0.89121
  11   3   7  8  1  o          0.0000       13.6871    0.00   0.88932
  10   6   7  8  1  o          0.0000     3768.7532    0.00   0.88921
  15  11   4  8  1  o          0.0000     1333.0214    0.00   0.88873
   4  12   7  8  1  o          0.0000     3677.7512    0.00   0.88873
  20   4   0  4  1  o          0.0000        0.5494    0.00   0.88842
   2  16   6  8  1  o          0.0000      393.7806    0.00   0.88839
  10  20   0  4  1  o          0.0000     3911.6055    0.00   0.88817
  16   4   5  8  1  o          0.0000     3460.3286    0.00   0.88766
  19   1   3  8  1  o          0.0000       59.5720    0.00   0.88695
   4  18   5  8  1  o          0.0000      114.2253    0.00   0.88679
   6  22   0  4  1  o          0.0000      327.2874    0.00   0.88638
   1  23   0  4  1  o          0.0000       91.4943    0.00   0.88618
   4   6   8  8  1  o          0.0000        5.0901    0.00   0.88617
   5   5   8  8  1  o          0.0000     5203.0010    0.00   0.88574
  16  14   1  8  1  o          0.0000     3060.4468    0.00   0.88572
   9  19   3  8  1  o          0.0000      213.4256    0.00   0.88539
  13   7   6  8  1  o          0.0000      962.5035    0.00   0.88501
  18   0   4  4  1  o          0.0000     7810.8667    0.00   0.88403
   1  13   7  8  1  o          0.0000      289.3119    0.00   0.88387
  14   4   6  8  1  o          0.0000       52.4888    0.00   0.88374
   7  21   2  8  1  o          0.0000     1641.0782    0.00   0.88368
   4  22   2  8  1  o          0.0000       28.2643    0.00   0.88302
   3   7   8  8  1  o          0.0000       31.6748    0.00   0.88281
  13  17   2  8  1  o          0.0000       83.2720    0.00   0.88245
  20   4   1  8  1  o          0.0000      992.5538    0.00   0.88225
  10  20   1  8  1  o          0.0000       39.5591    0.00   0.88201
  14  10   5  8  1  o          0.0000        6.1223    0.00   0.88162
   6   4   8  8  1  o          0.0000       21.9582    0.00   0.88154
  14  16   2  8  1  o          0.0000       24.2287    0.00   0.88119
   7  17   5  8  1  o          0.0000    12065.1064    0.00   0.88081
  18   2   4  8  1  o          0.0000     1103.4310    0.00   0.88073
  17   7   4  8  1  o          0.0000     1024.4972    0.00   0.88054
  19   3   3  8  1  o          0.0000       18.1427    0.00   0.88033
   6  22   1  8  1  o          0.0000     1291.3292    0.00   0.88025
   7   1   8  8  1  o          0.0000       43.3548    0.00   0.88021
   1  23   1  8  1  o          0.0000       61.1231    0.00   0.88006
  12  18   2  8  1  o          0.0000      607.4414    0.00   0.87997
   0   8   8  4  1  o          0.0000    20176.8711    0.00   0.87994
  16  12   3  8  1  o          0.0000     6000.1328    0.00   0.87975
  10  12   6  8  1  o          0.0000      909.5085    0.00   0.87945
  17  13   0  4  1  o          0.0000     2619.3577    0.00   0.87928
   4  20   4  8  1  o          0.0000      812.9533    0.00   0.87905
   9  13   6  8  1  o          0.0000      880.3647    0.00   0.87888
   5  21   3  8  1  o          0.0000      164.3827    0.00   0.87849
  19   7   2  8  1  o          0.0000      666.4338    0.00   0.87789
   3  23   0  4  1  o          0.0000     1460.3533    0.00   0.87775
  20   0   2  4  1  o          0.0000     6575.4355    0.00   0.87718
   7  19   4  8  1  o          0.0000      240.6907    0.00   0.87644
  11  11   6  8  1  o          0.0000     1481.7042    0.00   0.87631
  15  15   2  8  1  o          0.0000     1060.5780    0.00   0.87623
  11   5   7  8  1  o          0.0000      233.2636    0.00   0.87611
  19   9   0  4  1  o          0.0000       30.5320    0.00   0.87596
   2   8   8  8  1  o          0.0000     3491.8220    0.00   0.87578
   4  16   6  8  1  o          0.0000     1523.9718    0.00   0.87574
   3  13   7  8  1  o          0.0000      134.1239    0.00   0.87551
  18  10   2  8  1  o          0.0000      523.2197    0.00   0.87492
   8  14   6  8  1  o          0.0000       68.3606    0.00   0.87462
   9  21   0  4  1  o          0.0000       39.1864    0.00   0.87445
   8  10   7  8  1  o          0.0000      157.0393    0.00   0.87442
  18   8   3  8  1  o          0.0000        0.3250    0.00   0.87410
  20   2   2  8  1  o          0.0000       35.0125    0.00   0.87395
  11  19   2  8  1  o          0.0000      126.2775    0.00   0.87383
   7   3   8  8  1  o          0.0000      653.4177    0.00   0.87373
  16  10   4  8  1  o          0.0000      114.4117    0.00   0.87342
  17  13   1  8  1  o          0.0000      395.3679    0.00   0.87330
   7  11   7  8  1  o          0.0000        0.2193    0.00   0.87297
   1  19   5  8  1  o          0.0000      770.1696    0.00   0.87224
   9   9   7  8  1  o          0.0000      853.3020    0.00   0.87223
  20   6   0  4  1  o          0.0000      177.5352    0.00   0.87205
   3  23   1  8  1  o          0.0000       70.7180    0.00   0.87180
   8  20   3  8  1  o          0.0000     3366.7542    0.00   0.87135
  16   6   5  8  1  o          0.0000     1103.3196    0.00   0.87132
  18   4   4  8  1  o          0.0000      172.0449    0.00   0.87105
  19   9   1  8  1  o          0.0000      339.3725    0.00   0.87005
   0  22   3  4  1  o          0.0000     1000.6022    0.00   0.86965
  12  10   6  8  1  o          0.0000       70.5838    0.00   0.86959
  12   2   7  8  1  o          0.0000      283.1368    0.00   0.86939
   9  21   1  8  1  o          0.0000        5.4495    0.00   0.86857
   6  12   7  8  1  o          0.0000     7000.7144    0.00   0.86793
  16  14   2  8  1  o          0.0000        2.7061    0.00   0.86775
  14   6   6  8  1  o          0.0000      260.1750    0.00   0.86761
  19   5   3  8  1  o          0.0000        8.9085    0.00   0.86750
  15   9   5  8  1  o          0.0000     5839.0845    0.00   0.86710
   7  15   6  8  1  o          0.0000     1429.5479    0.00   0.86684
  10   8   7  8  1  o          0.0000       77.1750    0.00   0.86647
   5   7   8  8  1  o          0.0000      469.0361    0.00   0.86637
  20   6   1  8  1  o          0.0000       94.9083    0.00   0.86621
   6  18   5  8  1  o          0.0000      773.5076    0.00   0.86612
  15   1   6  8  1  o          0.0000      257.4474    0.00   0.86598
   8   0   8  4  1  o          0.0000     1580.5619    0.00   0.86568
  17   1   5  8  1  o          0.0000        6.6228    0.00   0.86565
   2  22   3  8  1  o          0.0000     1919.0966    0.00   0.86564
   6   6   8  8  1  o          0.0000      409.6653    0.00   0.86554
   1   9   8  8  1  o          0.0000        1.9873    0.00   0.86536
   1  17   6  8  1  o          0.0000       16.6343    0.00   0.86481
  20   4   2  8  1  o          0.0000       48.9127    0.00   0.86449
  17  11   3  8  1  o          0.0000      315.6699    0.00   0.86446
  10  20   2  8  1  o          0.0000       25.3681    0.00   0.86426
   3  19   5  8  1  o          0.0000        6.1101    0.00   0.86420
   4   8   8  8  1  o          0.0000      114.0707    0.00   0.86366
  18  12   0  4  1  o          0.0000        0.0079    0.00   0.86358
  12  16   4  8  1  o          0.0000       16.7507    0.00   0.86340
   0  14   7  4  1  o          0.0000       90.4171    0.00   0.86329
  13  15   4  8  1  o          0.0000       32.4077    0.00   0.86264
   6  22   2  8  1  o          0.0000       49.8770    0.00   0.86261
   8   2   8  8  1  o          0.0000       26.3264    0.00   0.86258
   1  23   2  8  1  o          0.0000     1154.6299    0.00   0.86243
   1  21   4  8  1  o          0.0000     1107.7805    0.00   0.86178
   5  23   0  4  1  o          0.0000      664.0362    0.00   0.86159
   7   5   8  8  1  o          0.0000      139.9084    0.00   0.86119
  11  17   4  8  1  o          0.0000      178.3793    0.00   0.86064
  12   4   7  8  1  o          0.0000     3059.4417    0.00   0.86008
  15   3   6  8  1  o          0.0000     1111.0446    0.00   0.85981
  13   9   6  8  1  o          0.0000        2.3301    0.00   0.85952
  17   3   5  8  1  o          0.0000      601.8287    0.00   0.85949
   5  13   7  8  1  o          0.0000       99.3514    0.00   0.85947
   2  14   7  8  1  o          0.0000     3467.1248    0.00   0.85936
   6  20   4  8  1  o          0.0000     1901.8054    0.00   0.85890
  11  15   5  8  1  o          0.0000      241.9027    0.00   0.85863
  21   1   0  4  1  o          0.0000      333.1198    0.00   0.85849
  14  14   4  8  1  o          0.0000       60.7353    0.00   0.85841
  12  14   5  8  1  o          0.0000     1834.4229    0.00   0.85832
  18  12   1  8  1  o          0.0000     3236.8042    0.00   0.85791
   8  22   0  4  1  o          0.0000      370.0800    0.00   0.85787
   3   9   8  8  1  o          0.0000        0.4188    0.00   0.85750
  11   7   7  8  1  o          0.0000      331.6786    0.00   0.85735
   3  17   6  8  1  o          0.0000        8.2153    0.00   0.85697
  17  13   2  8  1  o          0.0000     9660.9883    0.00   0.85606
   5  23   1  8  1  o          0.0000       56.5062    0.00   0.85597
   6  16   6  8  1  o          0.0000      425.1328    0.00   0.85582
  18   6   4  8  1  o          0.0000     2534.1292    0.00   0.85560
  10  16   5  8  1  o          0.0000     1332.8484    0.00   0.85550
  17   9   4  8  1  o          0.0000        7.0585    0.00   0.85543
   3  23   2  8  1  o          0.0000      213.6191    0.00   0.85465
  13  13   5  8  1  o          0.0000      292.1664    0.00   0.85456
   7  21   3  8  1  o          0.0000      911.7263    0.00   0.85452
  10  18   4  8  1  o          0.0000       27.1448    0.00   0.85448
   3  21   4  8  1  o          0.0000     2805.6270    0.00   0.85402
   4  22   3  8  1  o          0.0000     1327.3640    0.00   0.85393
   8   4   8  8  1  o          0.0000       16.2880    0.00   0.85348
  13  17   3  8  1  o          0.0000     7756.8042    0.00   0.85341
  19   9   2  8  1  o          0.0000       61.7721    0.00   0.85300
  21   1   1  8  1  o          0.0000      389.7505    0.00   0.85292
  21   3   0  4  1  o          0.0000     1466.9148    0.00   0.85247
   8  22   1  8  1  o          0.0000     1099.3020    0.00   0.85231
  14  16   3  8  1  o          0.0000       10.7079    0.00   0.85227
   0  10   8  4  1  o          0.0000      195.1926    0.00   0.85189
   9  21   2  8  1  o          0.0000      100.5746    0.00   0.85160
  14  18   0  4  1  o          0.0000     1339.0017    0.00   0.85125
  12  18   3  8  1  o          0.0000      149.5434    0.00   0.85116
  15  13   4  8  1  o          0.0000     2907.6914    0.00   0.85085
  20   8   0  4  1  o          0.0000     5898.8696    0.00   0.85057
   0  24   0  2  1  o          0.0000      395.9328    0.00   0.85028
  16   8   5  8  1  o          0.0000        9.5709    0.00   0.84990
  15  17   0  4  1  o          0.0000        0.0104    0.00   0.84971
  13  19   0  4  1  o          0.0000     1141.6603    0.00   0.84943
  20   6   2  8  1  o          0.0000      788.7976    0.00   0.84938
  19   7   3  8  1  o          0.0000      612.8051    0.00   0.84928
   9  17   5  8  1  o          0.0000        0.0749    0.00   0.84904
   5  19   5  8  1  o          0.0000     1002.2495    0.00   0.84876
   9   1   8  8  1  o          0.0000        1.7957    0.00   0.84849
   2  10   8  8  1  o          0.0000     1097.0759    0.00   0.84812
   4  14   7  8  1  o          0.0000     3788.2095    0.00   0.84790
  15   5   6  8  1  o          0.0000        7.2585    0.00   0.84785
  15  15   3  8  1  o          0.0000       21.8493    0.00   0.84778
  17   5   5  8  1  o          0.0000      114.4575    0.00   0.84755
  14  12   5  8  1  o          0.0000        1.2750    0.00   0.84751
  13   1   7  8  1  o          0.0000     1058.3877    0.00   0.84740
  21   3   1  8  1  o          0.0000      255.0520    0.00   0.84702
  18  10   3  8  1  o          0.0000      360.5454    0.00   0.84659
   2  24   0  4  1  o          0.0000      138.3199    0.00   0.84653
  19   1   4  8  1  o          0.0000        8.6000    0.00   0.84648
  14   8   6  8  1  o          0.0000      817.3506    0.00   0.84646
  14  18   1  8  1  o          0.0000       15.6656    0.00   0.84582
  20   2   3  8  1  o          0.0000      149.1609    0.00   0.84572
  11  19   3  8  1  o          0.0000     1054.0483    0.00   0.84560
  19  11   0  4  1  o          0.0000      266.0163    0.00   0.84536
  12   6   7  8  1  o          0.0000     1002.2682    0.00   0.84520
  20   8   1  8  1  o          0.0000        6.0073    0.00   0.84516
   9  19   4  8  1  o          0.0000      401.6462    0.00   0.84512
   0  24   1  4  1  o          0.0000      643.0106    0.00   0.84487
  16  16   0  4  1  o          0.0000     2705.7798    0.00   0.84485
   6   8   8  8  1  o          0.0000     1645.3413    0.00   0.84453
  12  20   0  4  1  o          0.0000      300.8364    0.00   0.84431
  15  17   1  8  1  o          0.0000      303.8286    0.00   0.84431
  13  19   1  8  1  o          0.0000     1820.5684    0.00   0.84404
   0  20   5  4  1  o          0.0000     2769.3228    0.00   0.84365
   7   7   8  8  1  o          0.0000      909.3422    0.00   0.84335
   9   3   8  8  1  o          0.0000       73.5591    0.00   0.84269
   5   9   8  8  1  o          0.0000       83.7141    0.00   0.84242
   9  11   7  8  1  o          0.0000      278.1501    0.00   0.84201
   5  17   6  8  1  o          0.0000       46.5494    0.00   0.84192
  13   3   7  8  1  o          0.0000      537.4763    0.00   0.84161
  18  12   2  8  1  o          0.0000     1826.6920    0.00   0.84155
   2  24   1  8  1  o          0.0000      382.9010    0.00   0.84119
   8  12   7  8  1  o          0.0000     4372.2539    0.00   0.84111
  21   5   0  4  1  o          0.0000     2093.2800    0.00   0.84081
   1  15   7  8  1  o          0.0000      479.4193    0.00   0.84081
  19   3   4  8  1  o          0.0000      117.3699    0.00   0.84072
  16  12   4  8  1  o          0.0000     1500.5388    0.00   0.84022
  16  14   3  8  1  o          0.0000     2458.2051    0.00   0.84009
  19  11   1  8  1  o          0.0000      151.3137    0.00   0.84004
   2  20   5  8  1  o          0.0000     3893.3848    0.00   0.83999
  11  13   6  8  1  o          0.0000     1942.4579    0.00   0.83993
  10  14   6  8  1  o          0.0000      350.3468    0.00   0.83983
   0  18   6  4  1  o          0.0000       46.8255    0.00   0.83976
   5  23   2  8  1  o          0.0000      673.2802    0.00   0.83972
  10  10   7  8  1  o          0.0000      749.4820    0.00   0.83965
  16  16   1  8  1  o          0.0000      353.8333    0.00   0.83954
   8  18   5  8  1  o          0.0000      657.8020    0.00   0.83946
   5  21   4  8  1  o          0.0000      483.9083    0.00   0.83912
  12  20   1  8  1  o          0.0000     1704.6345    0.00   0.83901
   7  23   0  4  1  o          0.0000      755.7979    0.00   0.83895
   8   6   8  8  1  o          0.0000      292.1551    0.00   0.83894
  15  11   5  8  1  o          0.0000      509.2282    0.00   0.83739
  16   0   6  4  1  o          0.0000      359.4418    0.00   0.83733
  20   4   3  8  1  o          0.0000    12070.1084    0.00   0.83713
   4  10   8  8  1  o          0.0000       45.8643    0.00   0.83709
   7  13   7  8  1  o          0.0000      460.2666    0.00   0.83699
  10  20   3  8  1  o          0.0000     4613.2764    0.00   0.83693
  17  15   0  4  1  o          0.0000     3850.2454    0.00   0.83685
  21   1   2  8  1  o          0.0000       69.2299    0.00   0.83684
  12  12   6  8  1  o          0.0000      855.7098    0.00   0.83680
   9  15   6  8  1  o          0.0000        5.5968    0.00   0.83651
   8  22   2  8  1  o          0.0000      248.9588    0.00   0.83627
   2  18   6  8  1  o          0.0000      910.2443    0.00   0.83614
  11  21   0  4  1  o          0.0000     8179.5200    0.00   0.83606
   1  11   8  8  1  o          0.0000     1075.1152    0.00   0.83582
  21   5   1  8  1  o          0.0000        6.9439    0.00   0.83558
   4  24   0  4  1  o          0.0000      226.0177    0.00   0.83557
   6  22   3  8  1  o          0.0000       64.6364    0.00   0.83542
  18   8   4  8  1  o          0.0000        0.0181    0.00   0.83529
   1  23   3  8  1  o          0.0000       86.5151    0.00   0.83526
  16   2   6  8  1  o          0.0000      768.7805    0.00   0.83453
  11   9   7  8  1  o          0.0000     1287.5890    0.00   0.83412
   7  23   1  8  1  o          0.0000        0.0246    0.00   0.83375
   3  15   7  8  1  o          0.0000      365.2652    0.00   0.83360
   8  20   4  8  1  o          0.0000     1579.8361    0.00   0.83289
  10   0   8  4  1  o          0.0000      825.9299    0.00   0.83190
   1   1   9  8  1  o          0.0000      484.4109    0.00   0.83174
  17  15   1  8  1  o          0.0000       77.9671    0.00   0.83169
   9   5   8  8  1  o          0.0000     1527.7970    0.00   0.83142
   0  22   4  4  1  o          0.0000      291.6895    0.00   0.83140
  21   3   2  8  1  o          0.0000     2912.2134    0.00   0.83126
  11  21   1  8  1  o          0.0000      177.3138    0.00   0.83092
  15   7   6  8  1  o          0.0000       62.6313    0.00   0.83082
  18   2   5  8  1  o          0.0000       55.5597    0.00   0.83069
  13  11   6  8  1  o          0.0000       33.2719    0.00   0.83056
   0   2   9  4  1  o          0.0000      195.6799    0.00   0.83055
  17   7   5  8  1  o          0.0000     3641.0691    0.00   0.83053
   4  24   1  8  1  o          0.0000      786.2223    0.00   0.83043
  13   5   7  8  1  o          0.0000      419.0827    0.00   0.83039
  14  18   2  8  1  o          0.0000      101.3638    0.00   0.83013
   8  16   6  8  1  o          0.0000     1290.4490    0.00   0.83008
   6  14   7  8  1  o          0.0000     4149.2051    0.00   0.82978
  19   5   4  8  1  o          0.0000      189.2704    0.00   0.82953
  20   8   2  8  1  o          0.0000     4739.0430    0.00   0.82950
  17  13   3  8  1  o          0.0000      243.1283    0.00   0.82947
   4  20   5  8  1  o          0.0000      703.6380    0.00   0.82927
   0  24   2  4  1  o          0.0000       12.3453    0.00   0.82923
  10   2   8  8  1  o          0.0000       10.1645    0.00   0.82915
   3  11   8  8  1  o          0.0000      408.9239    0.00   0.82874
  15  17   2  8  1  o          0.0000       12.3592    0.00   0.82870
  13  19   2  8  1  o          0.0000      100.4310    0.00   0.82844
   3  23   3  8  1  o          0.0000       64.5024    0.00   0.82819
   2  22   4  8  1  o          0.0000      214.5398    0.00   0.82790

# The following lines are used to test the character set of files sent by
# network email or other means. They are not part of the CIF data set.
# abcdefghijklmnopqrstuvwxyzABCDEFGHIJKLMNOPQRSTUVWXYZ0123456789
# !@#$%^&*()_+{}:"~<>?|\-=[];'`,./



_chemical_formula_iupac
;
|Na6(O2NC6H4N(CH3)2)1.94|[Al6Si42O96] MOR{[001](12-ring)}(Cmcm)
;
_cell_formula_units_Z
16
_chemical_formula_moiety
;
0.121(C8 H10 N2 O2),O5.25 Si2.65,O0.75 Al0.375,Na0.375'
;
_cell_length_a
18.04416(6)
_cell_length_b
20.40681(6)
_cell_length_c
7.49986(2)
_diffrn_radiation_type
synchrotron
_symmetry_space_group_name_Hall
'-C 2c 2'
_chemical_formula_weight
202.26
_refine_ls_number_restraints
0
_computing_structure_refinement
FULLPROF
_symmetry_space_group_name_H-M
'C m c m'
_cell_angle_gamma
90.00000
_cell_measurement_temperature
90
_diffrn_measurement_method
'Debye-Scherrer'
_refine_ls_shift/su_max
0.05
_refine_ls_number_reflns
1557
_diffrn_radiation_monochromator
'Ge 111'
_cell_volume
2761.626(14)
_refine_ls_hydrogen_treatment
noref
_symmetry_cell_setting
Orthorhombic
_chemical_name_common
'(dmpNA-MOR)'
_cell_angle_alpha
90.00000
_refine_ls_number_parameters
116
_chemical_formula_sum
'C0.97 H1.21 Al0.375 N0.24 Na0.33 O6.24 Si2.625'
_cell_angle_beta
90.00000
loop_
_symmetry_equiv_pos_as_xyz
x,y,z
x,-y,-z
-x,y,-z+1/2
-x,-y,z+1/2
-x,-y,-z
-x,y,z
x,-y,z+1/2
x,y,-z+1/2
x+1/2,y+1/2,z
x+1/2,-y+1/2,-z
-x+1/2,y+1/2,-z+1/2
-x+1/2,-y+1/2,z+1/2
-x+1/2,-y+1/2,-z
-x+1/2,y+1/2,z
x+1/2,-y+1/2,z+1/2
x+1/2,y+1/2,-z+1/2

loop_
_atom_type_symbol
_atom_type_scat_dispersion_real
_atom_type_scat_dispersion_imag
_atom_type_scat_source
si 0.07200 0.07100 International_Tables_for_Crystallography_Vol.C(1991)_Tables_6.1.1.4_and_6.1.1.5
o 0.00800 0.00600 International_Tables_for_Crystallography_Vol.C(1991)_Tables_6.1.1.4_and_6.1.1.5
na 0.03000 0.02500 International_Tables_for_Crystallography_Vol.C(1991)_Tables_6.1.1.4_and_6.1.1.5
c 0.00200 0.00200 International_Tables_for_Crystallography_Vol.C(1991)_Tables_6.1.1.4_and_6.1.1.5
h 0.00000 0.00000 International_Tables_for_Crystallography_Vol.C(1991)_Tables_6.1.1.4_and_6.1.1.5
n 0.00400 0.00300 International_Tables_for_Crystallography_Vol.C(1991)_Tables_6.1.1.4_and_6.1.1.5

loop_
_atom_site_type_symbol
_atom_site_label
_atom_site_fract_x
_atom_site_fract_y
_atom_site_fract_z
_atom_site_u_iso_or_equiv
_atom_site_adp_type
_atom_site_occupancy
Si Si1 0.30280(10) 0.07280(10) 0.0413(3) 1.137(9) Uiso 1.00000
Si Si2 0.30340(10) 0.3100(2) 0.0462(2) 1.137(9) Uiso 1.00000
Si Si3 0.0872(2) 0.3824(2) 0.25000 1.137(9) Uiso 1.00000
Si Si4 0.0876(2) 0.2265(2) 0.25000 1.137(9) Uiso 1.00000
O O1 0.1225(3) 0.4150(2) 0.4328(5) 2.31(2) Uiso 1.00000
O O2 0.1245(2) 0.1966(3) 0.4298(5) 2.31(2) Uiso 1.00000
O O3 0.2373(2) 0.1245(2) -0.0064(5) 2.31(2) Uiso 1.00000
O O4 0.1006(3) 0.3065(4) 0.25000 2.31(2) Uiso 1.00000
O O5 0.1695(3) 0.1977(4) 0.75000 2.31(2) Uiso 1.00000
O O6 0.1768(4) 0.4212(3) 0.75000 2.31(2) Uiso 1.00000
O O7 0.2724(4) 0.00000 0.00000 2.31(2) Uiso 1.00000
O O8 0.25000 0.25000 0.50000 2.31(2) Uiso 1.00000
O O9 0.00000 0.4011(5) 0.25000 2.31(2) Uiso 1.00000
O O10 0.00000 0.2035(5) 0.25000 2.31(2) Uiso 1.00000
Na Na1 0.50000 0.0740(5) 0.25000 8.70(10) Uiso 0.8092(8)
Na Na2 0.50000 0.00000 0.00000 3.40(10) Uiso 0.4988(8)
C C1 0.96917 0.08805 -0.15883 2.88(5) Uiso 0.12114(5)
C C2 0.99434 0.11504 0.00489 2.88(5) Uiso 0.12114(5)
H H1 1.02552 0.15282 0.00740 2.88(5) Uiso 0.12114(5)
C C3 0.97423 0.08795 0.16509 2.88(5) Uiso 0.12114(5)
H H2 0.98878 0.10541 0.27255 2.88(5) Uiso 0.12114(5)
C C4 0.92691 0.03429 0.16829 2.88(5) Uiso 0.12114(5)
H H3 0.86559 -0.02763 0.01115 2.88(5) Uiso 0.12114(5)
C C5 0.90025 0.00719 0.01027 2.88(5) Uiso 0.12114(5)
H H4 0.90019 0.01319 -0.25275 2.88(5) Uiso 0.12114(5)
C C6 0.92115 0.03353 -0.15125 2.88(5) Uiso 0.12114(5)
N N1 0.99059 0.11422 -0.31712 2.88(5) Uiso 0.12114(5)
C C7 1.03397 0.17357 -0.32350 2.88(5) Uiso 0.12114(5)
H H7 1.01116 0.21014 -0.25844 2.88(5) Uiso 0.12114(5)
H H6 1.04659 0.18559 -0.44747 2.88(5) Uiso 0.12114(5)
H H5 1.07979 0.17089 -0.25871 2.88(5) Uiso 0.12114(5)
C C8 0.96571 0.08522 -0.48416 2.88(5) Uiso 0.12114(5)
H H10 0.97717 0.04382 -0.49072 2.88(5) Uiso 0.12114(5)
H H9 0.98904 0.10803 -0.58267 2.88(5) Uiso 0.12114(5)
H H8 0.91264 0.08815 -0.50018 2.88(5) Uiso 0.12114(5)
N N2 0.90302 0.00831 0.33662 2.88(5) Uiso 0.12114(5)
O OA 0.86189 -0.04077 0.33595 2.88(5) Uiso 0.12114(5)
O OB 0.92329 0.03521 0.47581 2.88(5) Uiso 0.12114(5)

loop_
_geom_bond_atom_site_label_1
_geom_bond_atom_site_label_2
_geom_bond_site_symmetry_2
_geom_bond_distance
_geom_bond_publ_flag
Si1 O1 12_554 1.594(6) y
Si1 O3 1_555 1.624(5) y
Si1 O6 12_554 1.613(3) y
Si1 O7 1_555 1.614(3) y
Si2 O2 12_554 1.573(4) y
Si2 O3 13_555 1.554(5) y
Si2 O5 12_554 1.613(2) y
Si2 O8 8_555 1.596(3) y
Si3 O1 1_555 1.652(4) y
Si3 O1 8_555 1.652(4) y
Si3 O4 1_555 1.567(9) y
Si3 O9 1_555 1.618(4) y
Si4 O2 1_555 1.623(5) y
Si4 O2 8_555 1.623(5) y
Si4 O4 1_555 1.649(9) y
Si4 O10 1_555 1.649(4) y

loop_
_geom_contact_atom_site_label_1
_geom_contact_atom_site_label_2
_geom_contact_distance
_geom_contact_site_symmetry_1
_geom_contact_site_symmetry_2
_geom_contact_publ_flag
? ? ? ? ? ?

loop_
_geom_angle_atom_site_label_1
_geom_angle_atom_site_label_2
_geom_angle_atom_site_label_3
_geom_angle_site_symmetry_1
_geom_angle_site_symmetry_3
_geom_angle
_geom_angle_publ_flag
O1 Si1 O3 12_554 1_555 113.7(5) y
O1 Si1 O6 12_554 12_554 106.9(4) y
O1 Si1 O7 12_554 1_555 109.5(5) y
O3 Si1 O6 1_555 12_554 109.3(4) y
O3 Si1 O7 1_555 1_555 108.0(3) y
O6 Si1 O7 12_554 1_555 109.5(3) y
O2 Si2 O3 12_554 13_555 111.0(4) y
O2 Si2 O5 12_554 12_554 105.5(3) y
O2 Si2 O8 12_554 8_555 108.3(3) y
O3 Si2 O5 13_555 12_554 114.1(4) y
O3 Si2 O8 13_555 8_555 109.5(3) y
O5 Si2 O8 12_554 8_555 108.3(3) y
O1 Si3 O1 1_555 8_555 112.1(4) y
O1 Si3 O4 1_555 1_555 109.8(4) y
O1 Si3 O4 8_555 1_555 109.8(6) y
O1 Si3 O9 1_555 1_555 106.3(4) y
O1 Si3 O9 8_555 1_555 106.3(4) y
O4 Si3 O9 1_555 1_555 112.6(7) y
O2 Si4 O2 1_555 8_555 112.3(4) y
O2 Si4 O4 1_555 1_555 108.3(6) y
O2 Si4 O4 8_555 1_555 108.3(6) y
O2 Si4 O10 1_555 1_555 106.6(3) y
O2 Si4 O10 8_555 1_555 106.6(3) y
O4 Si4 O10 1_555 1_555 114.7(7) y
Si1 O1 Si3 12_555 1_555 144.4(3) y
Si2 O2 Si4 12_555 1_555 146.4(3) y
Si1 O3 Si2 1_555 13_555 160.9(3) y
Si3 O4 Si4 1_555 1_555 162.9(5) y
Si2 O5 Si2 12_555 13_556 142.8(2) y
Si1 O6 Si1 12_555 13_556 152.2(3) y
Si1 O7 Si1 1_555 2_555 140.2(3) y
Si2 O8 Si2 8_555 12_555 180.0 y
Si3 O9 Si3 1_555 3_555 152.7(4) y
Si4 O10 Si4 1_555 3_555 146.9(4) y

loop_
_geom_hbond_atom_site_label_d
_geom_hbond_atom_site_label_h
_geom_hbond_atom_site_label_a
_geom_hbond_site_symmetry_d
_geom_hbond_site_symmetry_a
_geom_hbond_distance_ha
_geom_hbond_distance_da
_geom_hbond_angle_dha
_geom_hbond_publ_flag
C2 H1 O2 1_555 8_655 2.052(4) 2.920(5) 150.4(4) y
C2 H1 O10 1_555 1_655 2.143(5) 2.578(7) 106.3(5) y
C3 H2 O10 1_555 1_655 2.020(10) 2.490(10) 109.8(8) y
C7 H5 O5 1_555 1_654 1.71 2.56 145 y
C7 H6 O2 1_555 1_654 1.70 2.51 137 y
C8 H8 O2 1_555 6_654 2.37 2.87 111 y
C8 H9 O10 1_555 1_654 2.33 3.19 148 y

