data_3

_pd_block_id      formII

loop_
      _pd_proc_point_id                           
      _pd_proc_2theta_corrected
      _pd_proc_intensity_total                     
      _pd_calc_intensity_total                     
      _pd_proc_ls_weight                        
1 5.00  1734 1763  0.058 
2 5.02  1759 1756  0.057 
3 5.04  1771 1750  0.057 
4 5.06  1768 1743  0.057 
5 5.08  1717 1736  0.058 
6 5.10  1749 1730  0.057 
7 5.12  1731 1723  0.058 
8 5.14  1654 1717  0.061 
9 5.16  1696 1710  0.059 
10 5.18  1654 1703  0.061 
11 5.20  1691 1697  0.059 
12 5.22  1697 1690  0.059 
13 5.24  1652 1683  0.061 
14 5.26  1651 1677  0.061 
15 5.28  1658 1670  0.060 
16 5.30  1611 1663  0.062 
17 5.32  1628 1657  0.061 
18 5.34  1615 1650  0.062 
19 5.36  1636 1643  0.061 
20 5.38  1590 1637  0.063 
21 5.40  1575 1630  0.064 
22 5.42  1595 1624  0.063 
23 5.44  1613 1617  0.062 
24 5.46  1597 1613  0.063 
25 5.48  1589 1606  0.063 
26 5.50  1602 1600  0.062 
27 5.52  1569 1593  0.064 
28 5.54  1580 1586  0.063 
29 5.56  1551 1580  0.065 
30 5.58  1583 1573  0.063 
31 5.60  1597 1567  0.063 
32 5.62  1572 1560  0.064 
33 5.64  1553 1554  0.064 
34 5.66  1570 1547  0.064 
35 5.68  1517 1541  0.066 
36 5.70  1558 1534  0.064 
37 5.72  1486 1528  0.067 
38 5.74  1524 1521  0.066 
39 5.76  1518 1515  0.066 
40 5.78  1513 1509  0.066 
41 5.80  1521 1502  0.066 
42 5.82  1553 1496  0.064 
43 5.84  1508 1489  0.066 
44 5.86  1465 1483  0.068 
45 5.88  1494 1480  0.067 
46 5.90  1492 1477  0.067 
47 5.92  1503 1473  0.067 
48 5.94  1495 1470  0.067 
49 5.96  1479 1467  0.068 
50 5.98  1463 1464  0.068 
51 6.00  1478 1460  0.068 
52 6.02  1478 1457  0.068 
53 6.04  1472 1454  0.068 
54 6.06  1476 1451  0.068 
55 6.08  1447 1448  0.069 
56 6.10  1446 1446  0.069 
57 6.12  1507 1443  0.066 
58 6.14  1484 1440  0.067 
59 6.16  1487 1438  0.067 
60 6.18  1500 1436  0.067 
61 6.20  1503 1434  0.067 
62 6.22  1463 1432  0.068 
63 6.24  1516 1431  0.066 
64 6.26  1546 1430  0.065 
65 6.28  1501 1429  0.067 
66 6.30  1556 1430  0.064 
67 6.32  1563 1431  0.064 
68 6.34  1604 1433  0.062 
69 6.36  1582 1436  0.063 
70 6.38  1595 1442  0.063 
71 6.40  1650 1450  0.061 
72 6.42  1672 1462  0.060 
73 6.44  1746 1480  0.057 
74 6.46  1795 1507  0.056 
75 6.48  1853 1550  0.054 
76 6.50  1981 1625  0.051 
77 6.52  2034 1777  0.049 
78 6.54  2175 2091  0.046 
79 6.56  2441 2668  0.041 
80 6.58  2834 3478  0.035 
81 6.60  3569 4028  0.028 
82 6.62  4047 3637  0.025 
83 6.64  2858 2810  0.035 
84 6.66  1655 2166  0.060 
85 6.68  1392 1797  0.072 
86 6.70  1360 1612  0.074 
87 6.72  1335 1518  0.075 
88 6.74  1333 1463  0.075 
89 6.76  1353 1427  0.074 
90 6.78  1318 1400  0.076 
91 6.80  1304 1379  0.077 
92 6.82  1321 1363  0.076 
93 6.84  1306 1349  0.077 
94 6.86  1323 1338  0.076 
95 6.88  1306 1328  0.077 
96 6.90  1300 1320  0.077 
97 6.92  1311 1312  0.076 
98 6.94  1295 1305  0.077 
99 6.96  1311 1298  0.076 
100 6.98  1296 1292  0.077 
101 7.00  1295 1287  0.077 
102 7.02  1258 1281  0.080 
103 7.04  1257 1276  0.080 
104 7.06  1252 1271  0.080 
105 7.08  1271 1266  0.079 
106 7.10  1262 1261  0.079 
107 7.12  1255 1257  0.080 
108 7.14  1281 1253  0.078 
109 7.16  1217 1249  0.082 
110 7.18  1218 1246  0.082 
111 7.20  1257 1243  0.080 
112 7.22  1231 1240  0.081 
113 7.24  1269 1237  0.079 
114 7.26  1263 1233  0.079 
115 7.28  1230 1230  0.081 
116 7.30  1223 1227  0.082 
117 7.32  1240 1224  0.081 
118 7.34  1236 1221  0.081 
119 7.36  1221 1218  0.082 
120 7.38  1234 1215  0.081 
121 7.40  1216 1212  0.082 
122 7.42  1209 1210  0.083 
123 7.44  1215 1207  0.082 
124 7.46  1250 1204  0.080 
125 7.48  1225 1201  0.082 
126 7.50  1207 1198  0.083 
127 7.52  1200 1195  0.083 
128 7.54  1220 1193  0.082 
129 7.56  1206 1190  0.083 
130 7.58  1233 1187  0.081 
131 7.60  1193 1184  0.084 
132 7.62  1201 1181  0.083 
133 7.64  1209 1179  0.083 
134 7.66  1182 1176  0.085 
135 7.68  1203 1173  0.083 
136 7.70  1173 1170  0.085 
137 7.72  1198 1168  0.084 
138 7.74  1208 1162  0.083 
139 7.76  1191 1160  0.084 
140 7.78  1178 1157  0.085 
141 7.80  1174 1154  0.085 
142 7.82  1159 1152  0.086 
143 7.84  1184 1149  0.085 
144 7.86  1191 1146  0.084 
145 7.88  1164 1144  0.086 
146 7.90  1153 1141  0.087 
147 7.92  1159 1138  0.086 
148 7.94  1162 1136  0.086 
149 7.96  1153 1133  0.087 
150 7.98  1141 1130  0.088 
151 8.00  1167 1128  0.086 
152 8.02  1139 1125  0.088 
153 8.04  1136 1122  0.088 
154 8.06  1156 1120  0.087 
155 8.08  1155 1117  0.087 
156 8.10  1121 1115  0.089 
157 8.12  1152 1112  0.087 
158 8.14  1146 1109  0.087 
159 8.16  1155 1107  0.087 
160 8.18  1102 1104  0.091 
161 8.20  1122 1101  0.089 
162 8.22  1120 1099  0.089 
163 8.24  1110 1096  0.090 
164 8.26  1109 1094  0.090 
165 8.28  1101 1091  0.091 
166 8.30  1100 1088  0.091 
167 8.32  1106 1086  0.090 
168 8.34  1140 1083  0.088 
169 8.36  1066 1080  0.094 
170 8.38  1129 1078  0.089 
171 8.40  1131 1075  0.088 
172 8.42  1093 1072  0.092 
173 8.44  1114 1070  0.090 
174 8.46  1087 1067  0.092 
175 8.48  1083 1064  0.092 
176 8.50  1087 1062  0.092 
177 8.52  1094 1059  0.091 
178 8.54  1087 1057  0.092 
179 8.56  1114 1054  0.090 
180 8.58  1098 1051  0.091 
181 8.60  1087 1049  0.092 
182 8.62  1077 1046  0.093 
183 8.64  1069 1044  0.094 
184 8.66  1116 1043  0.090 
185 8.68  1068 1042  0.094 
186 8.70  1072 1040  0.093 
187 8.72  1038 1039  0.096 
188 8.74  1054 1038  0.095 
189 8.76  1078 1037  0.093 
190 8.78  1068 1036  0.094 
191 8.80  1110 1035  0.090 
192 8.82  1099 1034  0.091 
193 8.84  1081 1033  0.093 
194 8.86  1086 1032  0.092 
195 8.88  1054 1031  0.095 
196 8.90  1116 1030  0.090 
197 8.92  1087 1029  0.092 
198 8.94  1070 1029  0.094 
199 8.96  1076 1028  0.093 
200 8.98  1066 1028  0.094 
201 9.00  1085 1028  0.092 
202 9.02  1083 1029  0.092 
203 9.04  1061 1030  0.094 
204 9.06  1081 1032  0.093 
205 9.08  1073 1036  0.093 
206 9.10  1085 1044  0.092 
207 9.12  1131 1062  0.088 
208 9.14  1122 1102  0.089 
209 9.16  1140 1185  0.088 
210 9.18  1215 1305  0.082 
211 9.20  1316 1382  0.076 
212 9.22  1312 1311  0.076 
213 9.24  1189 1187  0.084 
214 9.26  1051 1099  0.095 
215 9.28  1019 1053  0.098 
216 9.30  1047 1032  0.096 
217 9.32  1040 1022  0.096 
218 9.34  1024 1015  0.098 
219 9.36  1032 1010  0.097 
220 9.38  1037 1006  0.096 
221 9.40  1053 1003  0.095 
222 9.42  1026 1000  0.098 
223 9.44  979 998  0.102 
224 9.46  1017 996  0.098 
225 9.48  1041 994  0.096 
226 9.50  1021 992  0.098 
227 9.52  1012 990  0.099 
228 9.54  991 989  0.101 
229 9.56  1031 987  0.097 
230 9.58  984 986  0.102 
231 9.60  1045 984  0.096 
232 9.62  1016 983  0.098 
233 9.64  971 981  0.103 
234 9.66  1021 980  0.098 
235 9.68  1015 979  0.099 
236 9.70  1017 977  0.098 
237 9.72  979 976  0.102 
238 9.74  993 974  0.101 
239 9.76  1007 973  0.099 
240 9.78  995 972  0.101 
241 9.80  994 970  0.101 
242 9.82  1009 969  0.099 
243 9.84  961 968  0.104 
244 9.86  984 966  0.102 
245 9.88  1007 965  0.099 
246 9.90  1000 964  0.100 
247 9.92  987 963  0.101 
248 9.94  1009 961  0.099 
249 9.96  998 960  0.100 
250 9.98  1003 959  0.100 
251 10.00  1000 957  0.100 
252 10.02  1004 956  0.100 
253 10.04  1001 955  0.100 
254 10.06  991 953  0.101 
255 10.08  983 952  0.102 
256 10.10  938 951  0.107 
257 10.12  987 950  0.101 
258 10.14  972 948  0.103 
259 10.16  992 947  0.101 
260 10.18  970 946  0.103 
261 10.20  996 945  0.100 
262 10.22  982 943  0.102 
263 10.24  975 942  0.103 
264 10.26  999 941  0.100 
265 10.28  970 939  0.103 
266 10.30  960 938  0.104 
267 10.32  989 937  0.101 
268 10.34  980 935  0.102 
269 10.36  968 934  0.103 
270 10.38  949 933  0.105 
271 10.40  966 932  0.104 
272 10.42  975 930  0.103 
273 10.44  962 929  0.104 
274 10.46  962 928  0.104 
275 10.48  980 927  0.102 
276 10.50  959 925  0.104 
277 10.52  973 924  0.103 
278 10.54  977 923  0.102 
279 10.56  964 922  0.104 
280 10.58  979 920  0.102 
281 10.60  964 919  0.104 
282 10.62  954 918  0.105 
283 10.64  961 917  0.104 
284 10.66  961 915  0.104 
285 10.68  942 914  0.106 
286 10.70  943 913  0.106 
287 10.72  948 912  0.106 
288 10.74  967 911  0.103 
289 10.76  937 909  0.107 
290 10.78  953 908  0.105 
291 10.80  917 907  0.109 
292 10.82  952 906  0.105 
293 10.84  961 910  0.104 
294 10.86  949 911  0.105 
295 10.88  962 914  0.104 
296 10.90  972 921  0.103 
297 10.92  971 927  0.103 
298 10.94  965 925  0.104 
299 10.96  967 916  0.103 
300 10.98  960 908  0.104 
301 11.00  910 904  0.110 
302 11.02  957 901  0.105 
303 11.04  947 901  0.106 
304 11.06  917 901  0.109 
305 11.08  919 901  0.109 
306 11.10  932 901  0.107 
307 11.12  938 901  0.107 
308 11.14  922 901  0.109 
309 11.16  920 902  0.109 
310 11.18  947 902  0.106 
311 11.20  921 903  0.109 
312 11.22  919 903  0.109 
313 11.24  934 904  0.107 
314 11.26  927 905  0.108 
315 11.28  912 906  0.110 
316 11.30  932 908  0.107 
317 11.32  939 909  0.107 
318 11.34  915 911  0.109 
319 11.36  963 913  0.104 
320 11.38  947 915  0.106 
321 11.40  946 918  0.106 
322 11.42  973 921  0.103 
323 11.44  973 925  0.103 
324 11.46  998 930  0.100 
325 11.48  1031 937  0.097 
326 11.50  1030 944  0.097 
327 11.52  1088 954  0.092 
328 11.54  1120 967  0.089 
329 11.56  1187 983  0.084 
330 11.58  1240 1006  0.081 
331 11.60  1348 1037  0.074 
332 11.62  1452 1083  0.069 
333 11.64  1588 1157  0.063 
334 11.66  1811 1298  0.055 
335 11.68  2049 1625  0.049 
336 11.70  2436 2361  0.041 
337 11.72  3142 3672  0.032 
338 11.74  4392 5125  0.023 
339 11.76  5419 5214  0.018 
340 11.78  4302 3812  0.023 
341 11.80  2204 2455  0.045 
342 11.82  1226 1669  0.082 
343 11.84  1003 1316  0.100 
344 11.86  934 1163  0.107 
345 11.88  942 1086  0.106 
346 11.90  928 1037  0.108 
347 11.92  926 1005  0.108 
348 11.94  918 981  0.109 
349 11.96  906 964  0.110 
350 11.98  896 950  0.112 
351 12.00  921 940  0.109 
352 12.02  900 932  0.111 
353 12.04  902 925  0.111 
354 12.06  891 919  0.112 
355 12.08  868 915  0.115 
356 12.10  894 911  0.112 
357 12.12  891 908  0.112 
358 12.14  883 905  0.113 
359 12.16  880 902  0.114 
360 12.18  905 900  0.111 
361 12.20  912 898  0.110 
362 12.22  904 897  0.111 
363 12.24  907 895  0.110 
364 12.26  875 894  0.114 
365 12.28  890 892  0.112 
366 12.30  890 891  0.112 
367 12.32  864 890  0.116 
368 12.34  889 891  0.113 
369 12.36  885 890  0.113 
370 12.38  878 889  0.114 
371 12.40  905 888  0.111 
372 12.42  881 888  0.114 
373 12.44  899 887  0.111 
374 12.46  890 887  0.112 
375 12.48  886 886  0.113 
376 12.50  882 886  0.113 
377 12.52  898 885  0.111 
378 12.54  879 885  0.114 
379 12.56  895 884  0.112 
380 12.58  900 884  0.111 
381 12.60  872 884  0.115 
382 12.62  874 884  0.114 
383 12.64  882 883  0.113 
384 12.66  870 879  0.115 
385 12.68  900 879  0.111 
386 12.70  860 879  0.116 
387 12.72  909 879  0.110 
388 12.74  881 879  0.114 
389 12.76  896 879  0.112 
390 12.78  879 879  0.114 
391 12.80  894 879  0.112 
392 12.82  886 880  0.113 
393 12.84  882 880  0.113 
394 12.86  889 881  0.113 
395 12.88  875 881  0.114 
396 12.90  890 882  0.112 
397 12.92  888 883  0.113 
398 12.94  867 884  0.115 
399 12.96  889 885  0.113 
400 12.98  912 886  0.110 
401 13.00  903 888  0.111 
402 13.02  926 891  0.108 
403 13.04  928 894  0.108 
404 13.06  930 899  0.108 
405 13.08  927 904  0.108 
406 13.10  963 912  0.104 
407 13.12  1012 924  0.099 
408 13.14  1083 941  0.092 
409 13.16  1103 972  0.091 
410 13.18  1176 1039  0.085 
411 13.20  1288 1197  0.078 
412 13.22  1513 1519  0.066 
413 13.24  1804 1990  0.055 
414 13.26  2283 2314  0.044 
415 13.28  2309 2085  0.043 
416 13.30  1690 1606  0.059 
417 13.32  1057 1247  0.095 
418 13.34  954 1060  0.105 
419 13.36  894 979  0.112 
420 13.38  887 943  0.113 
421 13.40  890 924  0.112 
422 13.42  898 911  0.111 
423 13.44  896 902  0.112 
424 13.46  871 895  0.115 
425 13.48  885 891  0.113 
426 13.50  881 887  0.114 
427 13.52  859 884  0.116 
428 13.54  874 881  0.114 
429 13.56  875 879  0.114 
430 13.58  885 877  0.113 
431 13.60  881 876  0.114 
432 13.62  871 875  0.115 
433 13.64  876 873  0.114 
434 13.66  899 872  0.111 
435 13.68  878 872  0.114 
436 13.70  872 871  0.115 
437 13.72  879 870  0.114 
438 13.74  871 869  0.115 
439 13.76  874 869  0.114 
440 13.78  872 868  0.115 
441 13.80  865 868  0.116 
442 13.82  871 867  0.115 
443 13.84  913 867  0.110 
444 13.86  893 866  0.112 
445 13.88  892 866  0.112 
446 13.90  865 866  0.116 
447 13.92  852 865  0.117 
448 13.94  891 865  0.112 
449 13.96  873 865  0.115 
450 13.98  882 864  0.113 
451 14.00  880 864  0.114 
452 14.02  891 864  0.112 
453 14.04  893 863  0.112 
454 14.06  889 863  0.113 
455 14.08  884 863  0.113 
456 14.10  886 862  0.113 
457 14.12  895 862  0.112 
458 14.14  872 862  0.115 
459 14.16  865 862  0.116 
460 14.18  879 860  0.114 
461 14.20  892 860  0.112 
462 14.22  881 860  0.114 
463 14.24  884 859  0.113 
464 14.26  887 859  0.113 
465 14.28  876 860  0.114 
466 14.30  864 861  0.116 
467 14.32  860 862  0.116 
468 14.34  872 863  0.115 
469 14.36  865 864  0.116 
470 14.38  835 865  0.120 
471 14.40  875 867  0.114 
472 14.42  883 868  0.113 
473 14.44  905 869  0.111 
474 14.46  901 870  0.111 
475 14.48  882 871  0.113 
476 14.50  938 872  0.107 
477 14.52  898 874  0.111 
478 14.54  886 875  0.113 
479 14.56  869 876  0.115 
480 14.58  880 877  0.114 
481 14.60  883 878  0.113 
482 14.62  903 879  0.111 
483 14.64  871 881  0.115 
484 14.66  873 882  0.115 
485 14.68  902 891  0.111 
486 14.70  897 892  0.112 
487 14.72  912 894  0.110 
488 14.74  872 895  0.115 
489 14.76  899 897  0.111 
490 14.78  878 898  0.114 
491 14.80  895 900  0.112 
492 14.82  902 902  0.111 
493 14.84  926 903  0.108 
494 14.86  887 905  0.113 
495 14.88  881 907  0.114 
496 14.90  925 909  0.108 
497 14.92  912 911  0.110 
498 14.94  903 913  0.111 
499 14.96  893 915  0.112 
500 14.98  909 917  0.110 
501 15.00  893 920  0.112 
502 15.02  878 922  0.114 
503 15.04  884 925  0.113 
504 15.06  914 928  0.109 
505 15.08  914 930  0.109 
506 15.10  900 934  0.111 
507 15.12  868 937  0.115 
508 15.14  921 941  0.109 
509 15.16  917 945  0.109 
510 15.18  916 950  0.109 
511 15.20  901 955  0.111 
512 15.22  912 960  0.110 
513 15.24  923 967  0.108 
514 15.26  934 975  0.107 
515 15.28  954 984  0.105 
516 15.30  1006 994  0.099 
517 15.32  1007 1007  0.099 
518 15.34  1069 1022  0.094 
519 15.36  1099 1041  0.091 
520 15.38  1155 1066  0.087 
521 15.40  1284 1098  0.078 
522 15.42  1403 1141  0.071 
523 15.44  1601 1201  0.063 
524 15.46  1873 1291  0.053 
525 15.48  2173 1448  0.046 
526 15.50  2699 1803  0.037 
527 15.52  3452 2699  0.029 
528 15.54  4597 4641  0.022 
529 15.56  6895 7672  0.015 
530 15.58  9764 10218  0.010 
531 15.60  10437 9475  0.010 
532 15.62  7415 6407  0.013 
533 15.64  3612 3735  0.028 
534 15.66  1535 2259  0.065 
535 15.68  1107 1635  0.090 
536 15.70  1018 1387  0.098 
537 15.72  980 1266  0.102 
538 15.74  969 1193  0.103 
539 15.76  958 1143  0.104 
540 15.78  965 1107  0.104 
541 15.80  965 1080  0.104 
542 15.82  931 1060  0.107 
543 15.84  965 1047  0.104 
544 15.86  950 1035  0.105 
545 15.88  934 1026  0.107 
546 15.90  942 1019  0.106 
547 15.92  943 1013  0.106 
548 15.94  930 1008  0.108 
549 15.96  945 1004  0.106 
550 15.98  953 1001  0.105 
551 16.00  932 999  0.107 
552 16.02  986 997  0.101 
553 16.04  982 996  0.102 
554 16.06  954 994  0.105 
555 16.08  972 994  0.103 
556 16.10  942 993  0.106 
557 16.12  951 993  0.105 
558 16.14  920 993  0.109 
559 16.16  938 993  0.107 
560 16.18  963 993  0.104 
561 16.20  983 994  0.102 
562 16.22  978 994  0.102 
563 16.24  951 995  0.105 
564 16.26  967 996  0.103 
565 16.28  961 997  0.104 
566 16.30  966 998  0.104 
567 16.32  963 999  0.104 
568 16.34  952 1001  0.105 
569 16.36  968 1002  0.103 
570 16.38  980 1004  0.102 
571 16.40  1001 1006  0.100 
572 16.42  968 1008  0.103 
573 16.44  982 1011  0.102 
574 16.46  982 1014  0.102 
575 16.48  991 1018  0.101 
576 16.50  1015 1015  0.099 
577 16.52  1022 1021  0.098 
578 16.54  1042 1028  0.096 
579 16.56  1044 1037  0.096 
580 16.58  1074 1049  0.093 
581 16.60  1153 1065  0.087 
582 16.62  1228 1088  0.081 
583 16.64  1251 1128  0.080 
584 16.66  1425 1219  0.070 
585 16.68  1611 1445  0.062 
586 16.70  1977 1943  0.051 
587 16.72  2538 2740  0.039 
588 16.74  3252 3491  0.031 
589 16.76  3526 3461  0.028 
590 16.78  2864 2690  0.035 
591 16.80  1876 1908  0.053 
592 16.82  1235 1433  0.081 
593 16.84  1066 1221  0.094 
594 16.86  1055 1138  0.095 
595 16.88  1019 1102  0.098 
596 16.90  1025 1081  0.098 
597 16.92  1036 1068  0.097 
598 16.94  1006 1059  0.099 
599 16.96  994 1052  0.101 
600 16.98  1032 1047  0.097 
601 17.00  1014 1044  0.099 
602 17.02  1037 1042  0.096 
603 17.04  1023 1040  0.098 
604 17.06  993 1039  0.101 
605 17.08  1023 1038  0.098 
606 17.10  1026 1037  0.098 
607 17.12  1007 1037  0.099 
608 17.14  991 1037  0.101 
609 17.16  1018 1037  0.098 
610 17.18  1046 1038  0.096 
611 17.20  1043 1038  0.096 
612 17.22  1035 1038  0.097 
613 17.24  1033 1039  0.097 
614 17.26  1053 1040  0.095 
615 17.28  1032 1040  0.097 
616 17.30  1041 1042  0.096 
617 17.32  1006 1044  0.099 
618 17.34  1052 1046  0.095 
619 17.36  1058 1048  0.095 
620 17.38  1080 1050  0.093 
621 17.40  1034 1052  0.097 
622 17.42  1039 1054  0.096 
623 17.44  1022 1056  0.098 
624 17.46  1058 1058  0.095 
625 17.48  1039 1060  0.096 
626 17.50  1049 1063  0.095 
627 17.52  1067 1065  0.094 
628 17.54  1059 1067  0.094 
629 17.56  1075 1069  0.093 
630 17.58  1069 1072  0.094 
631 17.60  1054 1075  0.095 
632 17.62  1060 1077  0.094 
633 17.64  1062 1079  0.094 
634 17.66  1057 1080  0.095 
635 17.68  1057 1082  0.095 
636 17.70  1083 1084  0.092 
637 17.72  1081 1087  0.093 
638 17.74  1104 1089  0.091 
639 17.76  1057 1092  0.095 
640 17.78  1109 1094  0.090 
641 17.80  1072 1096  0.093 
642 17.82  1094 1099  0.091 
643 17.84  1096 1101  0.091 
644 17.86  1101 1104  0.091 
645 17.88  1129 1106  0.089 
646 17.90  1093 1109  0.092 
647 17.92  1082 1111  0.092 
648 17.94  1109 1114  0.090 
649 17.96  1078 1116  0.093 
650 17.98  1101 1119  0.091 
651 18.00  1127 1121  0.089 
652 18.02  1113 1124  0.090 
653 18.04  1129 1127  0.089 
654 18.06  1119 1130  0.089 
655 18.08  1134 1132  0.088 
656 18.10  1107 1135  0.090 
657 18.12  1137 1138  0.088 
658 18.14  1156 1141  0.087 
659 18.16  1143 1144  0.088 
660 18.18  1160 1148  0.086 
661 18.20  1134 1151  0.088 
662 18.22  1178 1155  0.085 
663 18.24  1182 1160  0.085 
664 18.26  1180 1164  0.085 
665 18.28  1170 1170  0.086 
666 18.30  1155 1176  0.087 
667 18.32  1218 1184  0.082 
668 18.34  1263 1194  0.079 
669 18.36  1306 1207  0.077 
670 18.38  1375 1229  0.073 
671 18.40  1429 1277  0.070 
672 18.42  1572 1405  0.064 
673 18.44  1799 1712  0.056 
674 18.46  2207 2255  0.045 
675 18.48  2704 2858  0.037 
676 18.50  3140 3040  0.032 
677 18.52  2792 2597  0.036 
678 18.54  2091 1985  0.048 
679 18.56  1488 1557  0.067 
680 18.58  1243 1353  0.080 
681 18.60  1236 1278  0.081 
682 18.62  1198 1251  0.084 
683 18.64  1243 1239  0.080 
684 18.66  1231 1232  0.081 
685 18.68  1228 1229  0.081 
686 18.70  1210 1227  0.083 
687 18.72  1219 1226  0.082 
688 18.74  1221 1226  0.082 
689 18.76  1220 1227  0.082 
690 18.78  1218 1228  0.082 
691 18.80  1227 1230  0.082 
692 18.82  1245 1232  0.080 
693 18.84  1214 1235  0.082 
694 18.86  1188 1238  0.084 
695 18.88  1231 1242  0.081 
696 18.90  1230 1246  0.081 
697 18.92  1259 1250  0.079 
698 18.94  1239 1255  0.081 
699 18.96  1272 1262  0.079 
700 18.98  1253 1270  0.080 
701 19.00  1286 1279  0.078 
702 19.02  1357 1292  0.074 
703 19.04  1389 1309  0.072 
704 19.06  1502 1339  0.067 
705 19.08  1574 1400  0.064 
706 19.10  1759 1564  0.057 
707 19.12  1966 1972  0.051 
708 19.14  2419 2744  0.041 
709 19.16  3122 3710  0.032 
710 19.18  3724 4223  0.027 
711 19.20  3558 3745  0.028 
712 19.22  2739 2787  0.037 
713 19.24  1901 2007  0.053 
714 19.26  1442 1592  0.069 
715 19.28  1347 1427  0.074 
716 19.30  1306 1369  0.077 
717 19.32  1309 1345  0.076 
718 19.34  1309 1332  0.076 
719 19.36  1308 1324  0.077 
720 19.38  1360 1319  0.074 
721 19.40  1306 1315  0.077 
722 19.42  1293 1313  0.077 
723 19.44  1305 1320  0.077 
724 19.46  1283 1321  0.078 
725 19.48  1286 1322  0.078 
726 19.50  1318 1324  0.076 
727 19.52  1285 1326  0.078 
728 19.54  1332 1329  0.075 
729 19.56  1356 1332  0.074 
730 19.58  1344 1335  0.074 
731 19.60  1316 1339  0.076 
732 19.62  1363 1343  0.073 
733 19.64  1317 1348  0.076 
734 19.66  1356 1353  0.074 
735 19.68  1397 1359  0.072 
736 19.70  1414 1366  0.071 
737 19.72  1363 1373  0.073 
738 19.74  1370 1383  0.073 
739 19.76  1415 1394  0.071 
740 19.78  1432 1408  0.070 
741 19.80  1453 1425  0.069 
742 19.82  1527 1449  0.066 
743 19.84  1623 1486  0.062 
744 19.86  1721 1559  0.058 
745 19.88  1909 1734  0.052 
746 19.90  2238 2139  0.045 
747 19.92  2665 2900  0.038 
748 19.94  3569 3913  0.028 
749 19.96  4413 4655  0.023 
750 19.98  4562 4464  0.022 
751 20.00  3821 3577  0.026 
752 20.02  2969 2721  0.034 
753 20.04  2715 2292  0.037 
754 20.06  3059 2461  0.033 
755 20.08  3810 3475  0.026 
756 20.10  5392 5578  0.019 
757 20.12  7703 8342  0.013 
758 20.14  9759 10102  0.010 
759 20.16  9404 9146  0.011 
760 20.18  6948 6453  0.014 
761 20.20  4039 3984  0.025 
762 20.22  2136 2532  0.047 
763 20.24  1717 1906  0.058 
764 20.26  1544 1679  0.065 
765 20.28  1513 1589  0.066 
766 20.30  1466 1541  0.068 
767 20.32  1461 1510  0.068 
768 20.34  1432 1488  0.070 
769 20.36  1415 1471  0.071 
770 20.38  1434 1459  0.070 
771 20.40  1437 1450  0.070 
772 20.42  1453 1443  0.069 
773 20.44  1441 1437  0.069 
774 20.46  1432 1435  0.070 
775 20.48  1426 1432  0.070 
776 20.50  1410 1430  0.071 
777 20.52  1431 1428  0.070 
778 20.54  1451 1427  0.069 
779 20.56  1442 1426  0.069 
780 20.58  1459 1426  0.069 
781 20.60  1423 1426  0.070 
782 20.62  1445 1426  0.069 
783 20.64  1451 1426  0.069 
784 20.66  1446 1427  0.069 
785 20.68  1434 1428  0.070 
786 20.70  1467 1428  0.068 
787 20.72  1451 1430  0.069 
788 20.74  1440 1431  0.069 
789 20.76  1479 1432  0.068 
790 20.78  1443 1433  0.069 
791 20.80  1480 1435  0.068 
792 20.82  1476 1436  0.068 
793 20.84  1433 1438  0.070 
794 20.86  1460 1440  0.069 
795 20.88  1470 1432  0.068 
796 20.90  1469 1434  0.068 
797 20.92  1451 1437  0.069 
798 20.94  1462 1440  0.068 
799 20.96  1502 1442  0.067 
800 20.98  1483 1445  0.067 
801 21.00  1455 1448  0.069 
802 21.02  1450 1451  0.069 
803 21.04  1467 1455  0.068 
804 21.06  1490 1458  0.067 
805 21.08  1466 1462  0.068 
806 21.10  1473 1467  0.068 
807 21.12  1498 1472  0.067 
808 21.14  1507 1478  0.066 
809 21.16  1512 1485  0.066 
810 21.18  1534 1493  0.065 
811 21.20  1524 1501  0.066 
812 21.22  1603 1513  0.062 
813 21.24  1658 1533  0.060 
814 21.26  1802 1572  0.056 
815 21.28  1981 1674  0.051 
816 21.30  2284 1937  0.044 
817 21.32  2747 2499  0.036 
818 21.34  3581 3389  0.028 
819 21.36  4735 4317  0.021 
820 21.38  5384 4652  0.019 
821 21.40  4825 4076  0.021 
822 21.42  3545 3104  0.028 
823 21.44  2399 2296  0.042 
824 21.46  1720 1832  0.058 
825 21.48  1604 1628  0.062 
826 21.50  1495 1551  0.067 
827 21.52  1484 1519  0.067 
828 21.54  1466 1501  0.068 
829 21.56  1510 1490  0.066 
830 21.58  1502 1481  0.067 
831 21.60  1490 1474  0.067 
832 21.62  1488 1469  0.067 
833 21.64  1459 1465  0.069 
834 21.66  1497 1461  0.067 
835 21.68  1490 1458  0.067 
836 21.70  1511 1456  0.066 
837 21.72  1473 1454  0.068 
838 21.74  1439 1452  0.070 
839 21.76  1482 1451  0.068 
840 21.78  1472 1450  0.068 
841 21.80  1455 1449  0.069 
842 21.82  1483 1448  0.067 
843 21.84  1457 1448  0.069 
844 21.86  1468 1448  0.068 
845 21.88  1485 1452  0.067 
846 21.90  1473 1463  0.068 
847 21.92  1495 1492  0.067 
848 21.94  1543 1551  0.065 
849 21.96  1570 1634  0.064 
850 21.98  1622 1701  0.062 
851 22.00  1680 1700  0.060 
852 22.02  1589 1631  0.063 
853 22.04  1523 1547  0.066 
854 22.06  1538 1487  0.065 
855 22.08  1468 1456  0.068 
856 22.10  1444 1444  0.069 
857 22.12  1470 1439  0.068 
858 22.14  1444 1437  0.069 
859 22.16  1486 1435  0.067 
860 22.18  1461 1434  0.068 
861 22.20  1441 1433  0.069 
862 22.22  1467 1432  0.068 
863 22.24  1470 1431  0.068 
864 22.26  1469 1430  0.068 
865 22.28  1481 1428  0.068 
866 22.30  1433 1427  0.070 
867 22.32  1447 1427  0.069 
868 22.34  1477 1427  0.068 
869 22.36  1430 1427  0.070 
870 22.38  1449 1426  0.069 
871 22.40  1445 1426  0.069 
872 22.42  1472 1427  0.068 
873 22.44  1457 1427  0.069 
874 22.46  1467 1427  0.068 
875 22.48  1461 1427  0.068 
876 22.50  1463 1428  0.068 
877 22.52  1480 1429  0.068 
878 22.54  1501 1433  0.067 
879 22.56  1591 1444  0.063 
880 22.58  1580 1477  0.063 
881 22.60  1677 1558  0.060 
882 22.62  1824 1715  0.055 
883 22.64  2069 1937  0.048 
884 22.66  2347 2137  0.043 
885 22.68  2444 2172  0.041 
886 22.70  2250 2010  0.044 
887 22.72  1930 1778  0.052 
888 22.74  1642 1591  0.061 
889 22.76  1451 1484  0.069 
890 22.78  1457 1436  0.069 
891 22.80  1451 1417  0.069 
892 22.82  1417 1408  0.071 
893 22.84  1409 1403  0.071 
894 22.86  1423 1399  0.070 
895 22.88  1462 1397  0.068 
896 22.90  1403 1394  0.071 
897 22.92  1439 1392  0.070 
898 22.94  1387 1390  0.072 
899 22.96  1422 1388  0.070 
900 22.98  1407 1386  0.071 
901 23.00  1363 1384  0.073 
902 23.02  1408 1382  0.071 
903 23.04  1378 1381  0.073 
904 23.06  1386 1379  0.072 
905 23.08  1368 1377  0.073 
906 23.10  1407 1376  0.071 
907 23.12  1394 1374  0.072 
908 23.14  1389 1373  0.072 
909 23.16  1396 1372  0.072 
910 23.18  1405 1370  0.071 
911 23.20  1401 1370  0.071 
912 23.22  1364 1369  0.073 
913 23.24  1379 1369  0.073 
914 23.26  1359 1370  0.074 
915 23.28  1363 1369  0.073 
916 23.30  1362 1368  0.073 
917 23.32  1341 1367  0.075 
918 23.34  1362 1364  0.073 
919 23.36  1345 1362  0.074 
920 23.38  1357 1359  0.074 
921 23.40  1376 1358  0.073 
922 23.42  1357 1357  0.074 
923 23.44  1340 1356  0.075 
924 23.46  1339 1355  0.075 
925 23.48  1372 1355  0.073 
926 23.50  1378 1355  0.073 
927 23.52  1351 1355  0.074 
928 23.54  1339 1357  0.075 
929 23.56  1413 1365  0.071 
930 23.58  1407 1387  0.071 
931 23.60  1468 1433  0.068 
932 23.62  1522 1507  0.066 
933 23.64  1630 1587  0.061 
934 23.66  1666 1626  0.060 
935 23.68  1675 1593  0.060 
936 23.70  1557 1515  0.064 
937 23.72  1427 1440  0.070 
938 23.74  1372 1391  0.073 
939 23.76  1351 1369  0.074 
940 23.78  1339 1363  0.075 
941 23.80  1378 1363  0.073 
942 23.82  1380 1367  0.073 
943 23.84  1344 1373  0.074 
944 23.86  1361 1384  0.074 
945 23.88  1434 1403  0.070 
946 23.90  1463 1444  0.068 
947 23.92  1536 1531  0.065 
948 23.94  1682 1704  0.060 
949 23.96  1971 1998  0.051 
950 23.98  2245 2404  0.045 
951 24.00  2624 2821  0.038 
952 24.02  2927 3045  0.034 
953 24.04  2878 2911  0.035 
954 24.06  2486 2522  0.040 
955 24.08  2024 2098  0.049 
956 24.10  1640 1770  0.061 
957 24.12  1455 1566  0.069 
958 24.14  1427 1461  0.070 
959 24.16  1329 1412  0.075 
960 24.18  1327 1391  0.075 
961 24.20  1328 1381  0.075 
962 24.22  1311 1377  0.076 
963 24.24  1339 1390  0.075 
964 24.26  1335 1396  0.075 
965 24.28  1364 1408  0.073 
966 24.30  1445 1431  0.069 
967 24.32  1533 1482  0.065 
968 24.34  1666 1598  0.060 
969 24.36  1855 1849  0.054 
970 24.38  2279 2316  0.044 
971 24.40  2881 3024  0.035 
972 24.42  3689 3844  0.027 
973 24.44  4466 4446  0.022 
974 24.46  4581 4431  0.022 
975 24.48  3987 3811  0.025 
976 24.50  3056 2986  0.033 
977 24.52  2197 2284  0.046 
978 24.54  1646 1822  0.061 
979 24.56  1432 1575  0.070 
980 24.58  1355 1458  0.074 
981 24.60  1320 1405  0.076 
982 24.62  1283 1377  0.078 
983 24.64  1267 1361  0.079 
984 24.66  1245 1349  0.080 
985 24.68  1277 1342  0.078 
986 24.70  1263 1338  0.079 
987 24.72  1307 1339  0.077 
988 24.74  1345 1347  0.074 
989 24.76  1375 1362  0.073 
990 24.78  1424 1384  0.070 
991 24.80  1421 1398  0.070 
992 24.82  1473 1400  0.068 
993 24.84  1417 1384  0.071 
994 24.86  1353 1364  0.074 
995 24.88  1291 1347  0.078 
996 24.90  1263 1337  0.079 
997 24.92  1239 1333  0.081 
998 24.94  1257 1334  0.080 
999 24.96  1247 1337  0.080 
1000 24.98  1252 1343  0.080 
1001 25.00  1228 1350  0.081 
1002 25.02  1284 1359  0.078 
1003 25.04  1283 1370  0.078 
1004 25.06  1254 1384  0.080 
1005 25.08  1236 1401  0.081 
1006 25.10  1297 1423  0.077 
1007 25.12  1296 1450  0.077 
1008 25.14  1365 1485  0.073 
1009 25.16  1439 1529  0.070 
1010 25.18  1559 1588  0.064 
1011 25.20  1699 1672  0.059 
1012 25.22  2012 1806  0.050 
1013 25.24  2406 2060  0.042 
1014 25.26  3161 2602  0.032 
1015 25.28  4271 3742  0.023 
1016 25.30  6263 5877  0.016 
1017 25.32  9000 9228  0.011 
1018 25.34  12943 13421  0.008 
1019 25.36  16922 17160  0.006 
1020 25.38  18823 18445  0.005 
1021 25.40  17028 16352  0.006 
1022 25.42  13017 12322  0.008 
1023 25.44  8449 8271  0.012 
1024 25.46  4893 5240  0.020 
1025 25.48  3045 3409  0.033 
1026 25.50  2211 2478  0.045 
1027 25.52  1919 2057  0.052 
1028 25.54  1854 1882  0.054 
1029 25.56  1880 1840  0.053 
1030 25.58  2062 1927  0.049 
1031 25.60  2455 2226  0.041 
1032 25.62  3105 2865  0.032 
1033 25.64  4052 3939  0.025 
1034 25.66  5505 5369  0.018 
1035 25.68  6844 6777  0.015 
1036 25.70  7725 7537  0.013 
1037 25.72  7498 7250  0.013 
1038 25.74  6260 6077  0.016 
1039 25.76  4709 4565  0.021 
1040 25.78  3233 3242  0.031 
1041 25.80  2271 2343  0.044 
1042 25.82  1702 1845  0.059 
1043 25.84  1515 1615  0.066 
1044 25.86  1363 1517  0.073 
1045 25.88  1291 1460  0.078 
1046 25.90  1288 1403  0.078 
1047 25.92  1215 1346  0.082 
1048 25.94  1196 1296  0.084 
1049 25.96  1155 1258  0.087 
1050 25.98  1152 1231  0.087 
1051 26.00  1116 1212  0.090 
1052 26.02  1117 1198  0.090 
1053 26.04  1083 1188  0.092 
1054 26.06  1112 1179  0.090 
1055 26.08  1093 1172  0.092 
1056 26.10  1112 1166  0.090 
1057 26.12  1092 1161  0.092 
1058 26.14  1121 1159  0.089 
1059 26.16  1135 1165  0.088 
1060 26.18  1180 1192  0.085 
1061 26.20  1275 1264  0.078 
1062 26.22  1388 1405  0.072 
1063 26.24  1645 1612  0.061 
1064 26.26  1990 1822  0.050 
1065 26.28  2146 1925  0.047 
1066 26.30  2041 1854  0.049 
1067 26.32  1810 1656  0.055 
1068 26.34  1526 1444  0.066 
1069 26.36  1299 1297  0.077 
1070 26.38  1244 1247  0.080 
1071 26.40  1257 1274  0.080 
1072 26.42  1357 1389  0.074 
1073 26.44  1556 1608  0.064 
1074 26.46  1824 1927  0.055 
1075 26.48  2141 2285  0.047 
1076 26.50  2485 2554  0.040 
1077 26.52  2521 2569  0.040 
1078 26.54  2333 2334  0.043 
1079 26.56  1950 1979  0.051 
1080 26.58  1632 1646  0.061 
1081 26.60  1348 1405  0.074 
1082 26.62  1198 1263  0.084 
1083 26.64  1168 1192  0.086 
1084 26.66  1138 1162  0.088 
1085 26.68  1136 1156  0.088 
1086 26.70  1160 1165  0.086 
1087 26.72  1174 1177  0.085 
1088 26.74  1193 1178  0.084 
1089 26.76  1182 1161  0.085 
1090 26.78  1086 1131  0.092 
1091 26.80  1043 1102  0.096 
1092 26.82  1046 1080  0.096 
1093 26.84  991 1068  0.101 
1094 26.86  1011 1063  0.099 
1095 26.88  974 1062  0.103 
1096 26.90  994 1064  0.101 
1097 26.92  1003 1066  0.100 
1098 26.94  1038 1070  0.096 
1099 26.96  1002 1075  0.100 
1100 26.98  1018 1082  0.098 
1101 27.00  1049 1092  0.095 
1102 27.02  1054 1101  0.095 
1103 27.04  1071 1117  0.093 
1104 27.06  1071 1138  0.093 
1105 27.08  1134 1166  0.088 
1106 27.10  1197 1206  0.084 
1107 27.12  1391 1270  0.072 
1108 27.14  1602 1398  0.062 
1109 27.16  2004 1689  0.050 
1110 27.18  2560 2345  0.039 
1111 27.20  3740 3669  0.027 
1112 27.22  5490 5912  0.018 
1113 27.24  8115 8977  0.012 
1114 27.26  11285 12147  0.009 
1115 27.28  13580 14107  0.007 
1116 27.30  13750 13698  0.007 
1117 27.32  11408 11185  0.009 
1118 27.34  7981 7924  0.013 
1119 27.36  4768 5075  0.021 
1120 27.38  2644 3136  0.038 
1121 27.40  1757 2058  0.057 
1122 27.42  1398 1544  0.072 
1123 27.44  1220 1318  0.082 
1124 27.46  1157 1213  0.086 
1125 27.48  1091 1155  0.092 
1126 27.50  1042 1117  0.096 
1127 27.52  1039 1088  0.096 
1128 27.54  989 1066  0.101 
1129 27.56  971 1050  0.103 
1130 27.58  993 1041  0.101 
1131 27.60  975 1037  0.103 
1132 27.62  994 1037  0.101 
1133 27.64  985 1034  0.102 
1134 27.66  968 1027  0.103 
1135 27.68  965 1014  0.104 
1136 27.70  956 998  0.105 
1137 27.72  946 983  0.106 
1138 27.74  924 973  0.108 
1139 27.76  908 966  0.110 
1140 27.78  913 963  0.110 
1141 27.80  913 963  0.110 
1142 27.82  945 968  0.106 
1143 27.84  980 980  0.102 
1144 27.86  981 1003  0.102 
1145 27.88  995 1034  0.101 
1146 27.90  1063 1070  0.094 
1147 27.92  1128 1111  0.089 
1148 27.94  1187 1174  0.084 
1149 27.96  1270 1284  0.079 
1150 27.98  1403 1458  0.071 
1151 28.00  1588 1676  0.063 
1152 28.02  1754 1872  0.057 
1153 28.04  1909 1954  0.052 
1154 28.06  1907 1875  0.052 
1155 28.08  1760 1699  0.057 
1156 28.10  1633 1535  0.061 
1157 28.12  1635 1481  0.061 
1158 28.14  1751 1603  0.057 
1159 28.16  2169 1939  0.046 
1160 28.18  2730 2484  0.037 
1161 28.20  3353 3165  0.030 
1162 28.22  4052 3857  0.025 
1163 28.24  4563 4374  0.022 
1164 28.26  4819 4561  0.021 
1165 28.28  4499 4292  0.022 
1166 28.30  3855 3638  0.026 
1167 28.32  3075 2884  0.033 
1168 28.34  2466 2295  0.041 
1169 28.36  1973 1972  0.051 
1170 28.38  1831 1846  0.055 
1171 28.40  1731 1767  0.058 
1172 28.42  1629 1622  0.061 
1173 28.44  1388 1412  0.072 
1174 28.46  1173 1198  0.085 
1175 28.48  986 1037  0.101 
1176 28.50  900 940  0.111 
1177 28.52  897 892  0.112 
1178 28.54  855 870  0.117 
1179 28.56  857 859  0.117 
1180 28.58  841 852  0.119 
1181 28.60  836 847  0.120 
1182 28.62  821 842  0.122 
1183 28.64  805 838  0.124 
1184 28.66  823 834  0.122 
1185 28.68  862 830  0.116 
1186 28.70  818 827  0.122 
1187 28.72  790 825  0.127 
1188 28.74  815 823  0.123 
1189 28.76  804 820  0.124 
1190 28.78  804 818  0.124 
1191 28.80  805 816  0.124 
1192 28.82  787 814  0.127 
1193 28.84  806 812  0.124 
1194 28.86  788 810  0.127 
1195 28.88  806 810  0.124 
1196 28.90  809 811  0.124 
1197 28.92  794 818  0.126 
1198 28.94  794 832  0.126 
1199 28.96  853 856  0.117 
1200 28.98  839 886  0.119 
1201 29.00  877 911  0.114 
1202 29.02  900 920  0.111 
1203 29.04  877 905  0.114 
1204 29.06  860 877  0.116 
1205 29.08  829 848  0.121 
1206 29.10  846 835  0.118 
1207 29.12  865 851  0.116 
1208 29.14  882 914  0.113 
1209 29.16  985 1037  0.102 
1210 29.18  1090 1204  0.092 
1211 29.20  1255 1371  0.080 
1212 29.22  1361 1459  0.074 
1213 29.24  1329 1423  0.075 
1214 29.26  1229 1288  0.081 
1215 29.28  1145 1130  0.087 
1216 29.30  1067 1032  0.094 
1217 29.32  1122 1053  0.089 
1218 29.34  1306 1234  0.077 
1219 29.36  1602 1599  0.062 
1220 29.38  2065 2122  0.048 
1221 29.40  2622 2690  0.038 
1222 29.42  3155 3103  0.032 
1223 29.44  3346 3169  0.030 
1224 29.46  3130 2850  0.032 
1225 29.48  2542 2307  0.039 
1226 29.50  1914 1748  0.052 
1227 29.52  1413 1311  0.071 
1228 29.54  1031 1034  0.097 
1229 29.56  927 885  0.108 
1230 29.58  840 815  0.119 
1231 29.60  810 784  0.124 
1232 29.62  781 769  0.128 
1233 29.64  761 761  0.131 
1234 29.66  747 755  0.134 
1235 29.68  741 750  0.135 
1236 29.70  738 746  0.136 
1237 29.72  730 743  0.137 
1238 29.74  759 739  0.132 
1239 29.76  722 736  0.139 
1240 29.78  698 734  0.143 
1241 29.80  735 731  0.136 
1242 29.82  712 729  0.140 
1243 29.84  739 727  0.135 
1244 29.86  753 725  0.133 
1245 29.88  751 723  0.133 
1246 29.90  720 721  0.139 
1247 29.92  722 721  0.139 
1248 29.94  732 723  0.137 
1249 29.96  763 733  0.131 
1250 29.98  762 757  0.131 
1251 30.00  784 802  0.128 
1252 30.02  862 870  0.116 
1253 30.04  922 944  0.109 
1254 30.06  1000 998  0.100 
1255 30.08  1002 1005  0.100 
1256 30.10  979 961  0.102 
1257 30.12  896 887  0.112 
1258 30.14  821 813  0.122 
1259 30.16  760 759  0.132 
1260 30.18  755 731  0.132 
1261 30.20  767 726  0.130 
1262 30.22  787 745  0.127 
1263 30.24  871 798  0.115 
1264 30.26  946 901  0.106 
1265 30.28  1102 1067  0.091 
1266 30.30  1282 1283  0.078 
1267 30.32  1517 1505  0.066 
1268 30.34  1714 1658  0.058 
1269 30.36  1686 1681  0.059 
1270 30.38  1527 1574  0.066 
1271 30.40  1368 1382  0.073 
1272 30.42  1125 1169  0.089 
1273 30.44  972 983  0.103 
1274 30.46  817 849  0.122 
1275 30.48  755 764  0.132 
1276 30.50  732 717  0.137 
1277 30.52  709 692  0.141 
1278 30.54  696 680  0.144 
1279 30.56  698 674  0.143 
1280 30.58  673 671  0.149 
1281 30.60  688 669  0.145 
1282 30.62  687 669  0.146 
1283 30.64  673 668  0.149 
1284 30.66  657 667  0.152 
1285 30.68  683 664  0.146 
1286 30.70  687 660  0.146 
1287 30.72  668 656  0.150 
1288 30.74  698 652  0.143 
1289 30.76  661 649  0.151 
1290 30.78  633 647  0.158 
1291 30.80  626 645  0.160 
1292 30.82  669 644  0.150 
1293 30.84  649 643  0.154 
1294 30.86  626 642  0.160 
1295 30.88  658 641  0.152 
1296 30.90  659 641  0.152 
1297 30.92  663 640  0.151 
1298 30.94  650 639  0.154 
1299 30.96  655 638  0.153 
1300 30.98  664 638  0.151 
1301 31.00  667 637  0.150 
1302 31.02  633 637  0.158 
1303 31.04  640 636  0.156 
1304 31.06  643 636  0.156 
1305 31.08  673 636  0.149 
1306 31.10  634 635  0.158 
1307 31.12  679 636  0.147 
1308 31.14  671 636  0.149 
1309 31.16  642 637  0.156 
1310 31.18  634 638  0.158 
1311 31.20  685 642  0.146 
1312 31.22  672 650  0.149 
1313 31.24  711 671  0.141 
1314 31.26  759 720  0.132 
1315 31.28  863 818  0.116 
1316 31.30  966 983  0.104 
1317 31.32  1217 1219  0.082 
1318 31.34  1564 1486  0.064 
1319 31.36  1844 1708  0.054 
1320 31.38  1947 1798  0.051 
1321 31.40  1800 1717  0.056 
1322 31.42  1671 1510  0.060 
1323 31.44  1298 1272  0.077 
1324 31.46  1074 1085  0.093 
1325 31.48  950 987  0.105 
1326 31.50  919 974  0.109 
1327 31.52  1001 1011  0.100 
1328 31.54  1054 1055  0.095 
1329 31.56  1122 1070  0.089 
1330 31.58  1101 1038  0.091 
1331 31.60  1082 969  0.092 
1332 31.62  1004 885  0.100 
1333 31.64  905 804  0.111 
1334 31.66  824 736  0.121 
1335 31.68  765 686  0.131 
1336 31.70  697 652  0.144 
1337 31.72  685 632  0.146 
1338 31.74  632 621  0.158 
1339 31.76  624 615  0.160 
1340 31.78  663 612  0.151 
1341 31.80  634 610  0.158 
1342 31.82  642 613  0.156 
1343 31.84  653 622  0.153 
1344 31.86  691 646  0.145 
1345 31.88  696 696  0.144 
1346 31.90  751 779  0.133 
1347 31.92  851 894  0.118 
1348 31.94  950 1023  0.105 
1349 31.96  1046 1140  0.096 
1350 31.98  1154 1219  0.087 
1351 32.00  1232 1245  0.081 
1352 32.02  1210 1210  0.083 
1353 32.04  1155 1121  0.087 
1354 32.06  1023 1001  0.098 
1355 32.08  892 877  0.112 
1356 32.10  797 773  0.126 
1357 32.12  701 697  0.143 
1358 32.14  667 649  0.150 
1359 32.16  650 621  0.154 
1360 32.18  598 605  0.167 
1361 32.20  627 596  0.160 
1362 32.22  608 591  0.165 
1363 32.24  632 588  0.158 
1364 32.26  595 587  0.168 
1365 32.28  592 589  0.169 
1366 32.30  607 592  0.165 
1367 32.32  594 598  0.168 
1368 32.34  610 604  0.164 
1369 32.36  600 608  0.167 
1370 32.38  627 609  0.160 
1371 32.40  615 606  0.163 
1372 32.42  624 599  0.160 
1373 32.44  603 591  0.166 
1374 32.46  583 583  0.172 
1375 32.48  607 577  0.165 
1376 32.50  592 574  0.169 
1377 32.52  600 572  0.167 
1378 32.54  599 573  0.167 
1379 32.56  596 577  0.168 
1380 32.58  592 588  0.169 
1381 32.60  622 607  0.161 
1382 32.62  660 636  0.152 
1383 32.64  695 672  0.144 
1384 32.66  729 706  0.137 
1385 32.68  744 726  0.134 
1386 32.70  721 723  0.139 
1387 32.72  709 699  0.141 
1388 32.74  687 663  0.146 
1389 32.76  660 626  0.152 
1390 32.78  616 596  0.162 
1391 32.80  579 576  0.173 
1392 32.82  557 564  0.180 
1393 32.84  571 558  0.175 
1394 32.86  562 555  0.178 
1395 32.88  563 553  0.178 
1396 32.90  550 552  0.182 
1397 32.92  555 551  0.180 
1398 32.94  574 550  0.174 
1399 32.96  576 549  0.174 
1400 32.98  556 549  0.180 
1401 33.00  540 547  0.185 
1402 33.02  552 547  0.181 
1403 33.04  547 546  0.183 
1404 33.06  563 546  0.178 
1405 33.08  562 545  0.178 
1406 33.10  565 545  0.177 
1407 33.12  557 548  0.180 
1408 33.14  556 555  0.180 
1409 33.16  579 571  0.173 
1410 33.18  598 602  0.167 
1411 33.20  583 649  0.172 
1412 33.22  652 705  0.153 
1413 33.24  685 754  0.146 
1414 33.26  682 777  0.147 
1415 33.28  678 766  0.148 
1416 33.30  664 724  0.151 
1417 33.32  639 669  0.157 
1418 33.34  604 619  0.166 
1419 33.36  589 585  0.170 
1420 33.38  578 568  0.173 
1421 33.40  591 563  0.169 
1422 33.42  595 564  0.168 
1423 33.44  584 566  0.171 
1424 33.46  595 567  0.168 
1425 33.48  583 570  0.172 
1426 33.50  580 582  0.172 
1427 33.52  619 609  0.162 
1428 33.54  630 654  0.159 
1429 33.56  667 711  0.150 
1430 33.58  724 766  0.138 
1431 33.60  720 799  0.139 
1432 33.62  736 795  0.136 
1433 33.64  679 757  0.147 
1434 33.66  646 699  0.155 
1435 33.68  590 638  0.170 
1436 33.70  569 590  0.176 
1437 33.72  550 559  0.182 
1438 33.74  523 542  0.191 
1439 33.76  543 534  0.184 
1440 33.78  542 531  0.185 
1441 33.80  546 531  0.183 
1442 33.82  555 532  0.180 
1443 33.84  541 534  0.185 
1444 33.86  563 537  0.178 
1445 33.88  547 539  0.183 
1446 33.90  563 540  0.178 
1447 33.92  539 539  0.186 
1448 33.94  529 536  0.189 
1449 33.96  527 532  0.190 
1450 33.98  536 529  0.187 
1451 34.00  565 526  0.177 
1452 34.02  542 524  0.185 
1453 34.04  529 524  0.189 
1454 34.06  528 524  0.189 
1455 34.08  556 525  0.180 
1456 34.10  538 528  0.186 
1457 34.12  517 533  0.193 
1458 34.14  558 540  0.179 
1459 34.16  572 548  0.175 
1460 34.18  594 555  0.168 
1461 34.20  608 559  0.165 
1462 34.22  571 557  0.175 
1463 34.24  565 551  0.177 
1464 34.26  565 542  0.177 
1465 34.28  547 533  0.183 
1466 34.30  533 526  0.188 
1467 34.32  551 521  0.182 
1468 34.34  534 518  0.187 
1469 34.36  520 516  0.192 
1470 34.38  529 515  0.189 
1471 34.40  540 514  0.185 
1472 34.42  529 514  0.189 
1473 34.44  512 513  0.195 
1474 34.46  534 513  0.187 
1475 34.48  512 512  0.195 
1476 34.50  516 512  0.194 
1477 34.52  530 511  0.189 
1478 34.54  523 511  0.191 
1479 34.56  500 510  0.200 
1480 34.58  535 510  0.187 
1481 34.60  513 509  0.195 
1482 34.62  498 509  0.201 
1483 34.64  520 508  0.192 
1484 34.66  525 508  0.191 
1485 34.68  509 507  0.197 
1486 34.70  510 507  0.196 
1487 34.72  499 507  0.200 
1488 34.74  516 506  0.194 
1489 34.76  521 506  0.192 
1490 34.78  501 505  0.200 
1491 34.80  513 505  0.195 
1492 34.82  511 504  0.196 
1493 34.84  515 504  0.194 
1494 34.86  497 503  0.201 
1495 34.88  515 503  0.194 
1496 34.90  507 502  0.197 
1497 34.92  510 502  0.196 
1498 34.94  503 501  0.199 
1499 34.96  501 501  0.200 
1500 34.98  524 500  0.191 
1501 35.00  517 500  0.193 
1502 35.02  507 500  0.197 
1503 35.04  493 500  0.203 
1504 35.06  506 500  0.198 
1505 35.08  508 500  0.197 
1506 35.10  517 500  0.193 
1507 35.12  521 500  0.192 
1508 35.14  494 501  0.202 
1509 35.16  524 500  0.191 
1510 35.18  505 499  0.198 
1511 35.20  504 498  0.198 
1512 35.22  513 497  0.195 
1513 35.24  508 497  0.197 
1514 35.26  490 497  0.204 
1515 35.28  506 497  0.198 
1516 35.30  528 499  0.189 
1517 35.32  500 502  0.200 
1518 35.34  506 506  0.198 
1519 35.36  514 510  0.195 
1520 35.38  498 515  0.201 
1521 35.40  502 520  0.199 
1522 35.42  522 524  0.192 
1523 35.44  511 524  0.196 
1524 35.46  496 522  0.202 
1525 35.48  523 517  0.191 
1526 35.50  516 510  0.194 
1527 35.52  511 505  0.196 
1528 35.54  525 502  0.191 
1529 35.56  532 502  0.188 
1530 35.58  541 496  0.185 
1531 35.60  561 498  0.178 
1532 35.62  555 498  0.180 
1533 35.64  557 497  0.180 
1534 35.66  557 498  0.180 
1535 35.68  602 507  0.166 
1536 35.70  590 543  0.170 
1537 35.72  663 631  0.151 
1538 35.74  800 802  0.125 
1539 35.76  1035 1072  0.097 
1540 35.78  1436 1421  0.070 
1541 35.80  1925 1774  0.052 
1542 35.82  2170 2027  0.046 
1543 35.84  2158 2095  0.046 
1544 35.86  1963 1957  0.051 
1545 35.88  1673 1659  0.060 
1546 35.90  1225 1298  0.082 
1547 35.92  910 977  0.110 
1548 35.94  704 756  0.142 
1549 35.96  654 645  0.153 
1550 35.98  651 623  0.154 
1551 36.00  704 660  0.142 
1552 36.02  741 724  0.135 
1553 36.04  778 787  0.129 
1554 36.06  817 824  0.122 
1555 36.08  835 822  0.120 
1556 36.10  774 782  0.129 
1557 36.12  711 719  0.141 
1558 36.14  675 651  0.148 
1559 36.16  585 593  0.171 
1560 36.18  569 553  0.176 
1561 36.20  556 529  0.180 
1562 36.22  533 517  0.188 
1563 36.24  514 512  0.195 
1564 36.26  534 514  0.187 
1565 36.28  552 521  0.181 
1566 36.30  576 532  0.174 
1567 36.32  577 544  0.173 
1568 36.34  585 553  0.171 
1569 36.36  584 555  0.171 
1570 36.38  567 549  0.176 
1571 36.40  564 537  0.177 
1572 36.42  548 523  0.183 
1573 36.44  531 509  0.188 
1574 36.46  528 498  0.189 
1575 36.48  514 489  0.195 
1576 36.50  512 484  0.195 
1577 36.52  499 481  0.200 
1578 36.54  490 478  0.204 
1579 36.56  490 477  0.204 
1580 36.58  492 477  0.203 
1581 36.60  483 476  0.207 
1582 36.62  507 477  0.197 
1583 36.64  504 478  0.198 
1584 36.66  511 482  0.196 
1585 36.68  519 488  0.193 
1586 36.70  542 496  0.185 
1587 36.72  546 515  0.183 
1588 36.74  573 544  0.175 
1589 36.76  614 588  0.163 
1590 36.78  666 649  0.150 
1591 36.80  779 722  0.128 
1592 36.82  856 802  0.117 
1593 36.84  947 887  0.106 
1594 36.86  1021 980  0.098 
1595 36.88  1129 1091  0.089 
1596 36.90  1245 1227  0.080 
1597 36.92  1369 1377  0.073 
1598 36.94  1496 1508  0.067 
1599 36.96  1566 1572  0.064 
1600 36.98  1572 1536  0.064 
1601 37.00  1446 1399  0.069 
1602 37.02  1232 1192  0.081 
1603 37.04  988 969  0.101 
1604 37.06  792 771  0.126 
1605 37.08  668 630  0.150 
1606 37.10  612 543  0.163 
1607 37.12  564 497  0.177 
1608 37.14  549 479  0.182 
1609 37.16  547 479  0.183 
1610 37.18  577 498  0.173 
1611 37.20  607 541  0.165 
1612 37.22  693 611  0.144 
1613 37.24  827 734  0.121 
1614 37.26  1047 890  0.096 
1615 37.28  1369 1069  0.073 
1616 37.30  1593 1226  0.063 
1617 37.32  1724 1324  0.058 
1618 37.34  1697 1358  0.059 
1619 37.36  1607 1358  0.062 
1620 37.38  1539 1390  0.065 
1621 37.40  1468 1525  0.068 
1622 37.42  1675 1800  0.060 
1623 37.44  2092 2182  0.048 
1624 37.46  2618 2572  0.038 
1625 37.48  2951 2848  0.034 
1626 37.50  3123 2915  0.032 
1627 37.52  2912 2736  0.034 
1628 37.54  2463 2359  0.041 
1629 37.56  1905 1882  0.053 
1630 37.58  1378 1410  0.073 
1631 37.60  969 1021  0.103 
1632 37.62  746 747  0.134 
1633 37.64  617 582  0.162 
1634 37.66  600 496  0.167 
1635 37.68  536 459  0.187 
1636 37.70  510 448  0.196 
1637 37.72  502 452  0.199 
1638 37.74  547 467  0.183 
1639 37.76  555 496  0.180 
1640 37.78  577 544  0.173 
1641 37.80  651 611  0.154 
1642 37.82  730 694  0.137 
1643 37.84  811 778  0.123 
1644 37.86  892 845  0.112 
1645 37.88  926 875  0.108 
1646 37.90  882 870  0.113 
1647 37.92  835 814  0.120 
1648 37.94  737 735  0.136 
1649 37.96  633 652  0.158 
1650 37.98  568 583  0.176 
1651 38.00  508 535  0.197 
1652 38.02  488 507  0.205 
1653 38.04  507 496  0.197 
1654 38.06  484 493  0.207 
1655 38.08  468 492  0.214 
1656 38.10  470 491  0.213 
1657 38.12  472 487  0.212 
1658 38.14  470 482  0.213 
1659 38.16  466 475  0.215 
1660 38.18  454 468  0.220 
1661 38.20  462 464  0.216 
1662 38.22  450 461  0.222 
1663 38.24  452 459  0.221 
1664 38.26  457 458  0.219 
1665 38.28  452 458  0.221 
1666 38.30  448 459  0.223 
1667 38.32  453 460  0.221 
1668 38.34  472 461  0.212 
1669 38.36  460 464  0.217 
1670 38.38  450 466  0.222 
1671 38.40  486 468  0.206 
1672 38.42  477 467  0.210 
1673 38.44  459 467  0.218 
1674 38.46  465 466  0.215 
1675 38.48  450 463  0.222 
1676 38.50  479 462  0.209 
1677 38.52  485 467  0.206 
1678 38.54  501 482  0.200 
1679 38.56  536 515  0.187 
1680 38.58  590 574  0.170 
1681 38.60  711 661  0.141 
1682 38.62  872 770  0.115 
1683 38.64  1053 879  0.095 
1684 38.66  1151 963  0.087 
1685 38.68  1204 999  0.083 
1686 38.70  1169 978  0.086 
1687 38.72  1053 904  0.095 
1688 38.74  896 799  0.112 
1689 38.76  761 689  0.131 
1690 38.78  606 595  0.165 
1691 38.80  550 528  0.182 
1692 38.82  518 484  0.193 
1693 38.84  486 461  0.206 
1694 38.86  479 451  0.209 
1695 38.88  460 448  0.217 
1696 38.90  472 450  0.212 
1697 38.92  504 455  0.198 
1698 38.94  476 464  0.210 
1699 38.96  513 479  0.195 
1700 38.98  524 503  0.191 
1701 39.00  559 538  0.179 
1702 39.02  594 583  0.168 
1703 39.04  669 632  0.150 
1704 39.06  730 674  0.137 
1705 39.08  777 698  0.129 
1706 39.10  751 696  0.133 
1707 39.12  714 669  0.140 
1708 39.14  683 623  0.146 
1709 39.16  606 571  0.165 
1710 39.18  529 524  0.189 
1711 39.20  486 489  0.206 
1712 39.22  476 468  0.210 
1713 39.24  466 461  0.215 
1714 39.26  467 466  0.214 
1715 39.28  476 481  0.210 
1716 39.30  478 505  0.209 
1717 39.32  516 533  0.194 
1718 39.34  551 562  0.182 
1719 39.36  569 584  0.176 
1720 39.38  587 593  0.170 
1721 39.40  580 587  0.172 
1722 39.42  554 567  0.181 
1723 39.44  546 540  0.183 
1724 39.46  485 507  0.206 
1725 39.48  484 480  0.207 
1726 39.50  470 459  0.213 
1727 39.52  469 445  0.213 
1728 39.54  459 438  0.218 
1729 39.56  470 440  0.213 
1730 39.58  486 452  0.206 
1731 39.60  523 478  0.191 
1732 39.62  550 525  0.182 
1733 39.64  611 593  0.164 
1734 39.66  704 677  0.142 
1735 39.68  782 766  0.128 
1736 39.70  891 839  0.112 
1737 39.72  966 878  0.104 
1738 39.74  973 872  0.103 
1739 39.76  854 825  0.117 
1740 39.78  801 751  0.125 
1741 39.80  704 673  0.142 
1742 39.82  613 611  0.163 
1743 39.84  568 576  0.176 
1744 39.86  555 570  0.180 
1745 39.88  555 582  0.180 
1746 39.90  577 597  0.173 
1747 39.92  581 604  0.172 
1748 39.94  538 595  0.186 
1749 39.96  532 571  0.188 
1750 39.98  509 538  0.197 
1751 40.00  462 500  0.216 
1752 40.02  446 468  0.224 
1753 40.04  425 444  0.235 
1754 40.06  415 429  0.241 
1755 40.08  415 421  0.241 
1756 40.10  396 416  0.253 
1757 40.12  408 415  0.245 
1758 40.14  426 414  0.235 
1759 40.16  429 414  0.233 
1760 40.18  427 415  0.234 
1761 40.20  403 415  0.248 
1762 40.22  423 415  0.236 
1763 40.24  403 414  0.248 
1764 40.26  431 414  0.232 
1765 40.28  406 414  0.246 
1766 40.30  430 413  0.233 
1767 40.32  405 413  0.247 
1768 40.34  420 413  0.238 
1769 40.36  418 413  0.239 
1770 40.38  407 412  0.246 
1771 40.40  412 412  0.243 
1772 40.42  433 413  0.231 
1773 40.44  420 416  0.238 
1774 40.46  436 420  0.229 
1775 40.48  438 428  0.228 
1776 40.50  465 440  0.215 
1777 40.52  505 456  0.198 
1778 40.54  524 477  0.191 
1779 40.56  542 499  0.185 
1780 40.58  549 522  0.182 
1781 40.60  579 542  0.173 
1782 40.62  574 561  0.174 
1783 40.64  584 579  0.171 
1784 40.66  587 597  0.170 
1785 40.68  590 618  0.170 
1786 40.70  606 642  0.165 
1787 40.72  639 667  0.157 
1788 40.74  652 690  0.153 
1789 40.76  699 706  0.143 
1790 40.78  702 714  0.142 
1791 40.80  684 711  0.146 
1792 40.82  674 700  0.148 
1793 40.84  658 679  0.152 
1794 40.86  625 652  0.160 
1795 40.88  611 619  0.164 
1796 40.90  588 583  0.170 
1797 40.92  564 547  0.177 
1798 40.94  562 513  0.178 
1799 40.96  542 486  0.185 
1800 40.98  552 467  0.181 
1801 41.00  544 459  0.184 
1802 41.02  510 461  0.196 
1803 41.04  538 475  0.186 
1804 41.06  505 502  0.198 
1805 41.08  547 542  0.183 
1806 41.10  602 589  0.166 
1807 41.12  630 639  0.159 
1808 41.14  650 678  0.154 
1809 41.16  675 699  0.148 
1810 41.18  702 701  0.142 
1811 41.20  690 688  0.145 
1812 41.22  664 670  0.151 
1813 41.24  647 656  0.155 
1814 41.26  644 654  0.155 
1815 41.28  702 664  0.142 
1816 41.30  747 680  0.134 
1817 41.32  788 694  0.127 
1818 41.34  804 697  0.124 
1819 41.36  793 688  0.126 
1820 41.38  777 665  0.129 
1821 41.40  769 632  0.130 
1822 41.42  730 594  0.137 
1823 41.44  683 555  0.146 
1824 41.46  634 518  0.158 
1825 41.48  576 483  0.174 
1826 41.50  513 455  0.195 
1827 41.52  468 432  0.214 
1828 41.54  431 417  0.232 
1829 41.56  439 408  0.228 
1830 41.58  413 402  0.242 
1831 41.60  417 400  0.240 
1832 41.62  399 399  0.251 
1833 41.64  409 398  0.245 
1834 41.66  399 398  0.251 
1835 41.68  427 398  0.234 
1836 41.70  407 397  0.246 
1837 41.72  430 397  0.233 
1838 41.74  408 397  0.245 
1839 41.76  417 398  0.240 
1840 41.78  397 400  0.252 
1841 41.80  424 405  0.236 
1842 41.82  420 414  0.238 
1843 41.84  426 430  0.235 
1844 41.86  431 454  0.232 
1845 41.88  446 486  0.224 
1846 41.90  478 523  0.209 
1847 41.92  472 558  0.212 
1848 41.94  498 583  0.201 
1849 41.96  530 594  0.189 
1850 41.98  503 588  0.199 
1851 42.00  515 565  0.194 
1852 42.02  478 532  0.209 
1853 42.04  464 495  0.216 
1854 42.06  444 461  0.225 
1855 42.08  427 435  0.234 
1856 42.10  415 417  0.241 
1857 42.12  418 407  0.239 
1858 42.14  410 402  0.244 
1859 42.16  416 400  0.240 
1860 42.18  405 401  0.247 
1861 42.20  393 402  0.254 
1862 42.22  403 405  0.248 
1863 42.24  400 406  0.250 
1864 42.26  422 406  0.237 
1865 42.28  400 406  0.250 
1866 42.30  428 405  0.234 
1867 42.32  410 404  0.244 
1868 42.34  402 404  0.249 
1869 42.36  447 405  0.224 
1870 42.38  418 408  0.239 
1871 42.40  424 412  0.236 
1872 42.42  445 415  0.225 
1873 42.44  448 418  0.223 
1874 42.46  452 419  0.221 
1875 42.48  432 417  0.232 
1876 42.50  449 413  0.223 
1877 42.52  425 408  0.235 
1878 42.54  411 403  0.243 
1879 42.56  408 398  0.245 
1880 42.58  417 394  0.240 
1881 42.60  415 391  0.241 
1882 42.62  384 389  0.260 
1883 42.64  419 389  0.239 
1884 42.66  417 388  0.240 
1885 42.68  394 388  0.254 
1886 42.70  396 387  0.253 
1887 42.72  407 387  0.246 
1888 42.74  393 387  0.254 
1889 42.76  398 387  0.251 
1890 42.78  411 387  0.243 
1891 42.80  395 387  0.253 
1892 42.82  402 386  0.249 
1893 42.84  401 386  0.249 
1894 42.86  411 386  0.243 
1895 42.88  406 386  0.246 
1896 42.90  393 386  0.254 
1897 42.92  386 385  0.259 
1898 42.94  400 385  0.250 
1899 42.96  411 385  0.243 
1900 42.98  405 385  0.247 
1901 43.00  389 384  0.257 
1902 43.02  393 384  0.254 
1903 43.04  407 384  0.246 
1904 43.06  395 384  0.253 
1905 43.08  409 384  0.245 
1906 43.10  400 383  0.250 
1907 43.12  396 383  0.253 
1908 43.14  395 383  0.253 
1909 43.16  400 383  0.250 
1910 43.18  390 383  0.256 
1911 43.20  399 382  0.251 
1912 43.22  412 382  0.243 
1913 43.24  418 382  0.239 
1914 43.26  426 382  0.235 
1915 43.28  413 382  0.242 
1916 43.30  405 382  0.247 
1917 43.32  405 382  0.247 
1918 43.34  399 382  0.251 
1919 43.36  411 382  0.243 
1920 43.38  403 382  0.248 
1921 43.40  395 382  0.253 
1922 43.42  400 382  0.250 
1923 43.44  402 383  0.249 
1924 43.46  411 384  0.243 
1925 43.48  417 385  0.240 
1926 43.50  412 387  0.243 
1927 43.52  424 389  0.236 
1928 43.54  403 391  0.248 
1929 43.56  416 392  0.240 
1930 43.58  398 393  0.251 
1931 43.60  413 392  0.242 
1932 43.62  390 391  0.256 
1933 43.64  406 390  0.246 
1934 43.66  422 390  0.237 
1935 43.68  406 391  0.246 
1936 43.70  413 395  0.242 
1937 43.72  410 401  0.244 
1938 43.74  423 410  0.236 
1939 43.76  417 420  0.240 
1940 43.78  431 430  0.232 
1941 43.80  442 439  0.226 
1942 43.82  442 443  0.226 
1943 43.84  426 443  0.235 
1944 43.86  431 439  0.232 
1945 43.88  436 433  0.229 
1946 43.90  433 424  0.231 
1947 43.92  456 418  0.219 
1948 43.94  468 416  0.214 
1949 43.96  460 418  0.217 
1950 43.98  451 427  0.222 
1951 44.00  471 443  0.212 
1952 44.02  490 468  0.204 
1953 44.04  504 503  0.198 
1954 44.06  573 546  0.175 
1955 44.08  612 596  0.163 
1956 44.10  668 647  0.150 
1957 44.12  692 694  0.145 
1958 44.14  765 728  0.131 
1959 44.16  748 743  0.134 
1960 44.18  771 738  0.130 
1961 44.20  719 711  0.139 
1962 44.22  669 667  0.150 
1963 44.24  631 614  0.159 
1964 44.26  544 558  0.184 
1965 44.28  487 508  0.205 
1966 44.30  468 466  0.214 
1967 44.32  441 436  0.227 
1968 44.34  433 413  0.231 
1969 44.36  424 400  0.236 
1970 44.38  412 391  0.243 
1971 44.40  422 385  0.237 
1972 44.42  406 383  0.246 
1973 44.44  404 385  0.248 
1974 44.46  400 387  0.250 
1975 44.48  428 390  0.234 
1976 44.50  422 396  0.237 
1977 44.52  444 402  0.225 
1978 44.54  435 409  0.230 
1979 44.56  453 415  0.221 
1980 44.58  465 418  0.215 
1981 44.60  463 419  0.216 
1982 44.62  436 415  0.229 
1983 44.64  441 412  0.227 
1984 44.66  451 408  0.222 
1985 44.68  420 406  0.238 
1986 44.70  441 407  0.227 
1987 44.72  427 413  0.234 
1988 44.74  446 425  0.224 
1989 44.76  473 446  0.211 
1990 44.78  509 473  0.197 
1991 44.80  566 506  0.177 
1992 44.82  602 538  0.166 
1993 44.84  649 564  0.154 
1994 44.86  654 578  0.153 
1995 44.88  676 577  0.148 
1996 44.90  621 562  0.161 
1997 44.92  598 534  0.167 
1998 44.94  529 499  0.189 
1999 44.96  501 464  0.200 
2000 44.98  449 433  0.223 
2001 45.00  419 410  0.239 
2002 45.02  408 394  0.245 
2003 45.04  424 386  0.236 
2004 45.06  416 381  0.240 
2005 45.08  399 379  0.251 
2006 45.10  389 379  0.257 
2007 45.12  421 380  0.238 
2008 45.14  394 383  0.254 
2009 45.16  406 385  0.246 
2010 45.18  406 387  0.246 
2011 45.20  417 388  0.240 
2012 45.22  435 394  0.230 
2013 45.24  421 401  0.238 
2014 45.26  422 409  0.237 
2015 45.28  433 418  0.231 
2016 45.30  433 428  0.231 
2017 45.32  467 440  0.214 
2018 45.34  457 455  0.219 
2019 45.36  477 474  0.210 
2020 45.38  465 498  0.215 
2021 45.40  525 525  0.191 
2022 45.42  534 550  0.187 
2023 45.44  527 568  0.190 
2024 45.46  560 575  0.179 
2025 45.48  546 569  0.183 
2026 45.50  516 550  0.194 
2027 45.52  501 521  0.200 
2028 45.54  479 486  0.209 
2029 45.56  441 453  0.227 
2030 45.58  421 426  0.238 
2031 45.60  423 407  0.236 
2032 45.62  420 396  0.238 
2033 45.64  421 394  0.238 
2034 45.66  423 398  0.236 
2035 45.68  418 408  0.239 
2036 45.70  444 423  0.225 
2037 45.72  493 445  0.203 
2038 45.74  515 466  0.194 
2039 45.76  578 484  0.173 
2040 45.78  593 497  0.169 
2041 45.80  586 503  0.171 
2042 45.82  578 501  0.173 
2043 45.84  549 492  0.182 
2044 45.86  523 479  0.191 
2045 45.88  504 464  0.198 
2046 45.90  476 451  0.210 
2047 45.92  477 440  0.210 
2048 45.94  452 432  0.221 
2049 45.96  442 425  0.226 
2050 45.98  443 419  0.226 
2051 46.00  436 413  0.229 
2052 46.02  426 407  0.235 
2053 46.04  402 400  0.249 
2054 46.06  408 395  0.245 
2055 46.08  419 387  0.239 
2056 46.10  382 383  0.262 
2057 46.12  403 382  0.248 
2058 46.14  394 382  0.254 
2059 46.16  419 386  0.239 
2060 46.18  403 394  0.248 
2061 46.20  420 407  0.238 
2062 46.22  424 429  0.236 
2063 46.24  461 456  0.217 
2064 46.26  498 488  0.201 
2065 46.28  546 521  0.183 
2066 46.30  557 548  0.180 
2067 46.32  598 565  0.167 
2068 46.34  580 570  0.172 
2069 46.36  569 561  0.176 
2070 46.38  543 540  0.184 
2071 46.40  497 511  0.201 
2072 46.42  435 480  0.230 
2073 46.44  430 450  0.233 
2074 46.46  400 426  0.250 
2075 46.48  399 408  0.251 
2076 46.50  397 397  0.252 
2077 46.52  389 386  0.257 
2078 46.54  390 382  0.256 
2079 46.56  378 380  0.265 
2080 46.58  409 380  0.245 
2081 46.60  381 386  0.263 
2082 46.62  415 394  0.241 
2083 46.64  393 407  0.254 
2084 46.66  404 428  0.248 
2085 46.68  437 456  0.229 
2086 46.70  488 490  0.205 
2087 46.72  518 525  0.193 
2088 46.74  561 556  0.178 
2089 46.76  579 577  0.173 
2090 46.78  580 584  0.172 
2091 46.80  574 576  0.174 
2092 46.82  529 555  0.189 
2093 46.84  514 524  0.195 
2094 46.86  470 488  0.213 
2095 46.88  426 454  0.235 
2096 46.90  412 427  0.243 
2097 46.92  421 407  0.238 
2098 46.94  383 394  0.261 
2099 46.96  396 388  0.253 
2100 46.98  402 387  0.249 
2101 47.00  383 390  0.261 
2102 47.02  394 396  0.254 
2103 47.04  416 407  0.240 
2104 47.06  417 417  0.240 
2105 47.08  431 426  0.232 
2106 47.10  447 434  0.224 
2107 47.12  472 440  0.212 
2108 47.14  447 442  0.224 
2109 47.16  445 438  0.225 
2110 47.18  451 432  0.222 
2111 47.20  442 423  0.226 
2112 47.22  414 414  0.242 
2113 47.24  398 406  0.251 
2114 47.26  410 400  0.244 
2115 47.28  401 399  0.249 
2116 47.30  401 404  0.249 
2117 47.32  406 414  0.246 
2118 47.34  437 430  0.229 
2119 47.36  464 448  0.216 
2120 47.38  493 466  0.203 
2121 47.40  514 479  0.195 
2122 47.42  492 485  0.203 
2123 47.44  528 484  0.189 
2124 47.46  489 475  0.205 
2125 47.48  460 460  0.217 
2126 47.50  425 442  0.235 
2127 47.52  403 424  0.248 
2128 47.54  408 412  0.245 
2129 47.56  389 405  0.257 
2130 47.58  399 403  0.251 
2131 47.60  395 406  0.253 
2132 47.62  406 411  0.246 
2133 47.64  424 419  0.236 
2134 47.66  425 428  0.235 
2135 47.68  433 441  0.231 
2136 47.70  435 454  0.230 
2137 47.72  451 466  0.222 
2138 47.74  488 475  0.205 
2139 47.76  465 481  0.215 
2140 47.78  474 483  0.211 
2141 47.80  460 482  0.217 
2142 47.82  480 477  0.208 
2143 47.84  462 471  0.216 
2144 47.86  447 464  0.224 
2145 47.88  469 462  0.213 
2146 47.90  443 464  0.226 
2147 47.92  456 470  0.219 
2148 47.94  481 479  0.208 
2149 47.96  487 489  0.205 
2150 47.98  537 499  0.186 
2151 48.00  553 508  0.181 
2152 48.02  537 515  0.186 
2153 48.04  572 525  0.175 
2154 48.06  564 529  0.177 
2155 48.08  596 533  0.168 
2156 48.10  607 535  0.165 
2157 48.12  601 536  0.166 
2158 48.14  579 533  0.173 
2159 48.16  558 531  0.179 
2160 48.18  528 532  0.189 
2161 48.20  511 536  0.196 
2162 48.22  516 545  0.194 
2163 48.24  496 560  0.202 
2164 48.26  514 578  0.195 
2165 48.28  534 595  0.187 
2166 48.30  523 607  0.191 
2167 48.32  575 613  0.174 
2168 48.34  565 611  0.177 
2169 48.36  570 601  0.175 
2170 48.38  573 584  0.175 
2171 48.40  541 564  0.185 
2172 48.42  568 542  0.176 
2173 48.44  524 522  0.191 
2174 48.46  508 502  0.197 
2175 48.48  489 485  0.205 
2176 48.50  452 470  0.221 
2177 48.52  436 456  0.229 
2178 48.54  448 444  0.223 
2179 48.56  441 432  0.227 
2180 48.58  407 423  0.246 
2181 48.60  394 413  0.254 
2182 48.62  407 403  0.246 
2183 48.64  395 395  0.253 
2184 48.66  383 390  0.261 
2185 48.68  368 386  0.272 
2186 48.70  389 383  0.257 
2187 48.72  401 383  0.249 
2188 48.74  374 388  0.267 
2189 48.76  394 394  0.254 
2190 48.78  392 405  0.255 
2191 48.80  410 419  0.244 
2192 48.82  423 438  0.236 
2193 48.84  437 459  0.229 
2194 48.86  464 480  0.216 
2195 48.88  438 500  0.228 
2196 48.90  477 514  0.210 
2197 48.92  472 521  0.212 
2198 48.94  474 519  0.211 
2199 48.96  456 507  0.219 
2200 48.98  430 491  0.233 
2201 49.00  426 471  0.235 
2202 49.02  414 451  0.242 
2203 49.04  392 435  0.255 
2204 49.06  399 424  0.251 
2205 49.08  417 423  0.240 
2206 49.10  429 430  0.233 
2207 49.12  436 447  0.229 
2208 49.14  455 469  0.220 
2209 49.16  470 495  0.213 
2210 49.18  495 519  0.202 
2211 49.20  510 535  0.196 
2212 49.22  498 543  0.201 
2213 49.24  506 538  0.198 
2214 49.26  497 524  0.201 
2215 49.28  479 502  0.209 
2216 49.30  449 476  0.223 
2217 49.32  429 450  0.233 
2218 49.34  426 430  0.235 
2219 49.36  402 418  0.249 
2220 49.38  393 415  0.254 
2221 49.40  422 422  0.237 
2222 49.42  439 435  0.228 
2223 49.44  437 453  0.229 
2224 49.46  468 471  0.214 
2225 49.48  480 489  0.208 
2226 49.50  508 500  0.197 
2227 49.52  490 504  0.204 
2228 49.54  500 499  0.200 
2229 49.56  481 491  0.208 
2230 49.58  499 477  0.200 
2231 49.60  482 463  0.208 
2232 49.62  452 450  0.221 
2233 49.64  459 440  0.218 
2234 49.66  449 436  0.223 
2235 49.68  428 438  0.234 
2236 49.70  441 447  0.227 
2237 49.72  433 461  0.231 
2238 49.74  447 479  0.224 
2239 49.76  464 498  0.216 
2240 49.78  471 512  0.212 
2241 49.80  509 519  0.197 
2242 49.82  499 518  0.200 
2243 49.84  506 508  0.198 
2244 49.86  479 492  0.209 
2245 49.88  480 469  0.208 
2246 49.90  431 446  0.232 
2247 49.92  409 425  0.245 
2248 49.94  404 409  0.248 
2249 49.96  403 400  0.248 
2250 49.98  399 398  0.251 
2251 50.00  396 404  0.253 
2252 50.02  423 417  0.236 
2253 50.04  412 434  0.243 
2254 50.06  449 459  0.223 
2255 50.08  465 484  0.215 
2256 50.10  514 507  0.195 
2257 50.12  512 527  0.195 
2258 50.14  556 538  0.180 
2259 50.16  561 547  0.178 
2260 50.18  551 551  0.182 
2261 50.20  545 552  0.184 
2262 50.22  544 552  0.184 
2263 50.24  508 554  0.197 
2264 50.26  511 558  0.196 
2265 50.28  485 562  0.206 
2266 50.30  527 570  0.190 
2267 50.32  502 579  0.199 
2268 50.34  528 584  0.189 
2269 50.36  537 585  0.186 
2270 50.38  543 579  0.184 
2271 50.40  522 571  0.192 
2272 50.42  517 559  0.193 
2273 50.44  507 546  0.197 
2274 50.46  504 535  0.198 
2275 50.48  504 525  0.198 
2276 50.50  521 516  0.192 
2277 50.52  515 507  0.194 
2278 50.54  521 497  0.192 
2279 50.56  493 487  0.203 
2280 50.58  498 471  0.201 
2281 50.60  460 453  0.217 
2282 50.62  433 433  0.231 
2283 50.64  397 415  0.252 
2284 50.66  394 402  0.254 
2285 50.68  374 389  0.267 
2286 50.70  368 381  0.272 
2287 50.72  364 376  0.275 
2288 50.74  356 373  0.281 
2289 50.76  367 372  0.273 
2290 50.78  363 373  0.276 
2291 50.80  374 377  0.267 
2292 50.82  375 379  0.267 
2293 50.84  371 382  0.270 
2294 50.86  366 384  0.273 
2295 50.88  389 387  0.257 
2296 50.90  374 389  0.267 
2297 50.92  375 390  0.267 
2298 50.94  398 390  0.251 
2299 50.96  383 389  0.261 
2300 50.98  390 387  0.256 
2301 51.00  411 385  0.243 
2302 51.02  389 382  0.257 
2303 51.04  376 380  0.266 
2304 51.06  391 378  0.256 
2305 51.08  392 375  0.255 
2306 51.10  365 375  0.274 
2307 51.12  368 375  0.272 
2308 51.14  392 374  0.255 
2309 51.16  361 378  0.277 
2310 51.18  376 383  0.266 
2311 51.20  381 394  0.263 
2312 51.22  378 405  0.265 
2313 51.24  412 426  0.243 
2314 51.26  416 452  0.240 
2315 51.28  438 485  0.228 
2316 51.30  479 522  0.209 
2317 51.32  513 563  0.195 
2318 51.34  507 602  0.197 
2319 51.36  539 630  0.186 
2320 51.38  548 668  0.183 
2321 51.40  578 701  0.173 
2322 51.42  623 732  0.161 
2323 51.44  653 763  0.153 
2324 51.46  697 798  0.144 
2325 51.48  714 842  0.140 
2326 51.50  766 899  0.131 
2327 51.52  794 970  0.126 
2328 51.54  879 1048  0.114 
2329 51.56  991 1120  0.101 
2330 51.58  1020 1171  0.098 
2331 51.60  1059 1191  0.094 
2332 51.62  1032 1172  0.097 
2333 51.64  994 1116  0.101 
2334 51.66  899 1028  0.111 
2335 51.68  816 910  0.123 
2336 51.70  705 783  0.142 
2337 51.72  576 659  0.174 
2338 51.74  501 555  0.200 
2339 51.76  459 479  0.218 
2340 51.78  447 424  0.224 
2341 51.80  406 391  0.246 
2342 51.82  381 374  0.263 
2343 51.84  410 366  0.244 
2344 51.86  384 367  0.260 
2345 51.88  363 380  0.276 
2346 51.90  373 380  0.268 
2347 51.92  388 379  0.258 
2348 51.94  364 377  0.275 
2349 51.96  370 375  0.270 
2350 51.98  362 373  0.276 
2351 52.00  374 371  0.267 
2352 52.02  357 371  0.280 
2353 52.04  374 371  0.267 
2354 52.06  361 372  0.277 
2355 52.08  363 374  0.276 
2356 52.10  350 376  0.286 
2357 52.12  365 379  0.274 
2358 52.14  349 382  0.287 
2359 52.16  367 385  0.273 
2360 52.18  357 385  0.280 
2361 52.20  393 385  0.254 
2362 52.22  376 385  0.266 
2363 52.24  353 385  0.283 
2364 52.26  359 386  0.279 
2365 52.28  364 388  0.275 
2366 52.30  367 393  0.273 
2367 52.32  377 401  0.265 
2368 52.34  359 411  0.279 
2369 52.36  389 423  0.257 
2370 52.38  386 435  0.259 
2371 52.40  381 444  0.263 
2372 52.42  384 449  0.260 
2373 52.44  378 450  0.265 
2374 52.46  401 445  0.249 
2375 52.48  388 437  0.258 
2376 52.50  377 424  0.265 
2377 52.52  398 411  0.251 
2378 52.54  353 397  0.283 
2379 52.56  369 383  0.271 
2380 52.58  371 374  0.270 
2381 52.60  365 368  0.274 
2382 52.62  376 366  0.266 
2383 52.64  369 368  0.271 
2384 52.66  357 374  0.280 
2385 52.68  380 383  0.263 
2386 52.70  409 399  0.245 
2387 52.72  410 416  0.244 
2388 52.74  438 434  0.228 
2389 52.76  441 453  0.227 
2390 52.78  449 468  0.223 
2391 52.80  476 477  0.210 
2392 52.82  468 481  0.214 
2393 52.84  455 478  0.220 
2394 52.86  457 470  0.219 
2395 52.88  420 457  0.238 
2396 52.90  401 442  0.249 
2397 52.92  402 430  0.249 
2398 52.94  398 421  0.251 
2399 52.96  390 417  0.256 
2400 52.98  391 417  0.256 
2401 53.00  392 421  0.255 
2402 53.02  396 427  0.253 
2403 53.04  392 432  0.255 
2404 53.06  410 438  0.244 
2405 53.08  408 444  0.245 
2406 53.10  422 446  0.237 
2407 53.12  415 445  0.241 
2408 53.14  410 441  0.244 
2409 53.16  415 436  0.241 
2410 53.18  407 429  0.246 
2411 53.20  385 420  0.260 
2412 53.22  397 412  0.252 
2413 53.24  412 405  0.243 
2414 53.26  370 400  0.270 
2415 53.28  377 398  0.265 
2416 53.30  394 400  0.254 
2417 53.32  403 405  0.248 
2418 53.34  396 413  0.253 
2419 53.36  425 423  0.235 
2420 53.38  444 434  0.225 
2421 53.40  435 443  0.230 
2422 53.42  451 450  0.222 
2423 53.44  458 453  0.218 
2424 53.46  456 451  0.219 
2425 53.48  426 444  0.235 
2426 53.50  437 435  0.229 
2427 53.52  398 423  0.251 
2428 53.54  391 410  0.256 
2429 53.56  376 397  0.266 
2430 53.58  382 386  0.262 
2431 53.60  367 377  0.273 
2432 53.62  347 370  0.288 
2433 53.64  360 365  0.278 
2434 53.66  372 362  0.269 
2435 53.68  350 360  0.286 
2436 53.70  355 359  0.282 
2437 53.72  351 359  0.285 
2438 53.74  353 360  0.283 
2439 53.76  351 363  0.285 
2440 53.78  346 365  0.289 
2441 53.80  346 369  0.289 
2442 53.82  350 372  0.286 
2443 53.84  352 372  0.284 
2444 53.86  358 373  0.279 
2445 53.88  369 374  0.271 
2446 53.90  339 375  0.295 
2447 53.92  359 376  0.279 
2448 53.94  351 378  0.285 
2449 53.96  368 383  0.272 
2450 53.98  373 390  0.268 
2451 54.00  378 401  0.265 
2452 54.02  417 414  0.240 
2453 54.04  431 428  0.232 
2454 54.06  427 442  0.234 
2455 54.08  471 454  0.212 
2456 54.10  460 463  0.217 
2457 54.12  474 469  0.211 
2458 54.14  472 472  0.212 
2459 54.16  451 471  0.222 
2460 54.18  445 469  0.225 
2461 54.20  438 465  0.228 
2462 54.22  422 461  0.237 
2463 54.24  406 457  0.246 
2464 54.26  415 454  0.241 
2465 54.28  398 451  0.251 
2466 54.30  402 447  0.249 
2467 54.32  421 441  0.238 
2468 54.34  386 435  0.259 
2469 54.36  405 429  0.247 
2470 54.38  383 424  0.261 
2471 54.40  394 420  0.254 
2472 54.42  406 417  0.246 
2473 54.44  403 417  0.248 
2474 54.46  444 419  0.225 
2475 54.48  461 423  0.217 
2476 54.50  487 428  0.205 
2477 54.52  462 434  0.216 
2478 54.54  457 438  0.219 
2479 54.56  454 440  0.220 
2480 54.58  437 439  0.229 
2481 54.60  408 437  0.245 
2482 54.62  382 430  0.262 
2483 54.64  398 421  0.251 
2484 54.66  385 411  0.260 
2485 54.68  355 400  0.282 
2486 54.70  349 389  0.287 
2487 54.72  355 378  0.282 
2488 54.74  336 369  0.298 
2489 54.76  346 359  0.289 
2490 54.78  343 354  0.292 
2491 54.80  333 351  0.300 
2492 54.82  342 351  0.292 
2493 54.84  348 353  0.287 
2494 54.86  349 359  0.287 
2495 54.88  339 368  0.295 
2496 54.90  383 381  0.261 
2497 54.92  368 397  0.272 
2498 54.94  389 415  0.257 
2499 54.96  411 434  0.243 
2500 54.98  437 451  0.229 
2501 55.00  466 464  0.215 
2502 55.02  447 473  0.224 
2503 55.04  457 474  0.219 
2504 55.06  453 474  0.221 
2505 55.08  439 470  0.228 
2506 55.10  451 465  0.222 
2507 55.12  425 461  0.235 
2508 55.14  425 459  0.235 
2509 55.16  450 462  0.222 
2510 55.18  430 470  0.233 
2511 55.20  464 480  0.216 
2512 55.22  454 490  0.220 
2513 55.24  453 498  0.221 
2514 55.26  441 499  0.227 
2515 55.28  462 495  0.216 
2516 55.30  443 486  0.226 
2517 55.32  429 470  0.233 
2518 55.34  413 450  0.242 
2519 55.36  405 427  0.247 
2520 55.38  384 404  0.260 
2521 55.40  387 385  0.258 
2522 55.42  370 371  0.270 
2523 55.44  356 362  0.281 
2524 55.46  377 357  0.265 
2525 55.48  379 357  0.264 
2526 55.50  363 360  0.276 
2527 55.52  387 367  0.258 
2528 55.54  380 375  0.263 
2529 55.56  383 386  0.261 
2530 55.58  402 396  0.249 
2531 55.60  435 404  0.230 
2532 55.62  411 410  0.243 
2533 55.64  418 412  0.239 
2534 55.66  424 411  0.236 
2535 55.68  407 406  0.246 
2536 55.70  390 399  0.256 
2537 55.72  390 391  0.256 
2538 55.74  394 382  0.254 
2539 55.76  378 373  0.265 
2540 55.78  351 366  0.285 
2541 55.80  358 361  0.279 
2542 55.82  346 356  0.289 
2543 55.84  363 353  0.276 
2544 55.86  348 350  0.287 
2545 55.88  339 346  0.295 
2546 55.90  357 343  0.280 
2547 55.92  326 340  0.307 
2548 55.94  340 338  0.294 
2549 55.96  354 336  0.283 
2550 55.98  342 336  0.292 
2551 56.00  334 334  0.299 
2552 56.02  336 334  0.298 
2553 56.04  333 333  0.300 
2554 56.06  335 328  0.299 
2555 56.08  348 328  0.287 
2556 56.10  339 329  0.295 
2557 56.12  340 331  0.294 
2558 56.14  366 335  0.273 
2559 56.16  338 343  0.296 
2560 56.18  351 356  0.285 
2561 56.20  371 374  0.270 
2562 56.22  388 397  0.258 
2563 56.24  405 425  0.247 
2564 56.26  420 454  0.238 
2565 56.28  442 479  0.226 
2566 56.30  489 499  0.205 
2567 56.32  480 511  0.208 
2568 56.34  488 515  0.205 
2569 56.36  496 511  0.202 
2570 56.38  494 500  0.202 
2571 56.40  459 484  0.218 
2572 56.42  438 467  0.228 
2573 56.44  429 453  0.233 
2574 56.46  427 444  0.234 
2575 56.48  434 441  0.230 
2576 56.50  434 442  0.230 
2577 56.52  453 446  0.221 
2578 56.54  463 448  0.216 
2579 56.56  499 452  0.200 
2580 56.58  495 453  0.202 
2581 56.60  488 457  0.205 
2582 56.62  478 452  0.209 
2583 56.64  457 447  0.219 
2584 56.66  461 441  0.217 
2585 56.68  463 432  0.216 
2586 56.70  477 430  0.210 
2587 56.72  482 431  0.208 
2588 56.74  500 434  0.200 
2589 56.76  528 440  0.189 
2590 56.78  501 448  0.200 
2591 56.80  498 460  0.201 
2592 56.82  509 474  0.197 
2593 56.84  486 491  0.206 
2594 56.86  488 509  0.205 
2595 56.88  475 527  0.211 
2596 56.90  472 541  0.212 
2597 56.92  488 549  0.205 
2598 56.94  466 549  0.215 
2599 56.96  467 542  0.214 
2600 56.98  475 526  0.211 
2601 57.00  463 502  0.216 
2602 57.02  465 473  0.215 
2603 57.04  426 442  0.235 
2604 57.06  415 413  0.241 
2605 57.08  406 388  0.246 
2606 57.10  386 369  0.259 
2607 57.12  359 357  0.279 
2608 57.14  373 351  0.268 
2609 57.16  377 350  0.265 
2610 57.18  381 352  0.263 
2611 57.20  393 356  0.254 
2612 57.22  384 364  0.260 
2613 57.24  385 365  0.260 
2614 57.26  407 366  0.246 
2615 57.28  370 363  0.270 
2616 57.30  371 358  0.270 
2617 57.32  373 352  0.268 
2618 57.34  363 343  0.276 
2619 57.36  346 336  0.289 
2620 57.38  327 331  0.306 
2621 57.40  343 328  0.292 
2622 57.42  353 327  0.283 
2623 57.44  333 329  0.300 
2624 57.46  352 335  0.284 
2625 57.48  348 343  0.287 
2626 57.50  350 354  0.286 
2627 57.52  381 364  0.263 
2628 57.54  412 375  0.243 
2629 57.56  389 383  0.257 
2630 57.58  419 387  0.239 
2631 57.60  408 388  0.245 
2632 57.62  401 382  0.249 
2633 57.64  395 377  0.253 
2634 57.66  395 369  0.253 
2635 57.68  370 361  0.270 
2636 57.70  363 355  0.276 
2637 57.72  350 353  0.286 
2638 57.74  369 355  0.271 
2639 57.76  366 364  0.273 
2640 57.78  394 377  0.254 
2641 57.80  408 394  0.245 
2642 57.82  407 411  0.246 
2643 57.84  425 426  0.235 
2644 57.86  425 440  0.235 
2645 57.88  481 447  0.208 
2646 57.90  440 448  0.227 
2647 57.92  451 443  0.222 
2648 57.94  443 433  0.226 
2649 57.96  412 420  0.243 
2650 57.98  423 405  0.236 
2651 58.00  380 389  0.263 
2652 58.02  367 376  0.273 
2653 58.04  370 366  0.270 
2654 58.06  379 357  0.264 
2655 58.08  367 351  0.273 
2656 58.10  342 346  0.292 
2657 58.12  379 342  0.264 
2658 58.14  377 341  0.265 
2659 58.16  348 338  0.287 
2660 58.18  346 334  0.289 
2661 58.20  327 331  0.306 
2662 58.22  347 328  0.288 
2663 58.24  337 326  0.297 
2664 58.26  332 325  0.301 
2665 58.28  341 325  0.293 
2666 58.30  333 324  0.300 
2667 58.32  343 325  0.292 
2668 58.34  343 326  0.292 
2669 58.36  346 327  0.289 
2670 58.38  343 328  0.292 
2671 58.40  329 329  0.304 
2672 58.42  355 331  0.282 
2673 58.44  352 333  0.284 
2674 58.46  340 336  0.294 
2675 58.48  350 338  0.286 
2676 58.50  350 341  0.286 
2677 58.52  341 344  0.293 
2678 58.54  346 347  0.289 
2679 58.56  342 350  0.292 
2680 58.58  359 353  0.279 
2681 58.60  321 355  0.312 
2682 58.62  340 356  0.294 
2683 58.64  344 356  0.291 
2684 58.66  354 356  0.283 
2685 58.68  349 355  0.287 
2686 58.70  375 353  0.267 
2687 58.72  379 350  0.264 
2688 58.74  370 346  0.270 
2689 58.76  358 341  0.279 
2690 58.78  353 336  0.283 
2691 58.80  345 331  0.290 
2692 58.82  342 325  0.292 
2693 58.84  325 320  0.308 
2694 58.86  324 316  0.309 
2695 58.88  320 312  0.313 
2696 58.90  312 310  0.321 
2697 58.92  315 308  0.318 
2698 58.94  311 307  0.322 
2699 58.96  317 307  0.315 
2700 58.98  319 307  0.314 
2701 59.00  320 309  0.313 
2702 59.02  303 310  0.330 
2703 59.04  308 311  0.325 
2704 59.06  337 313  0.297 
2705 59.08  318 315  0.315 
2706 59.10  320 317  0.313 
2707 59.12  343 318  0.292 
2708 59.14  344 319  0.291 
2709 59.16  323 319  0.310 
2710 59.18  344 320  0.291 
2711 59.20  333 319  0.300 
2712 59.22  347 318  0.288 
2713 59.24  328 317  0.305 
2714 59.26  336 316  0.298 
2715 59.28  345 314  0.290 
2716 59.30  325 313  0.308 
2717 59.32  312 312  0.321 
2718 59.34  329 311  0.304 
2719 59.36  329 310  0.304 
2720 59.38  320 311  0.313 
2721 59.40  327 314  0.306 
2722 59.42  339 317  0.295 
2723 59.44  342 324  0.292 
2724 59.46  337 332  0.297 
2725 59.48  351 343  0.285 
2726 59.50  377 356  0.265 
2727 59.52  397 371  0.252 
2728 59.54  405 385  0.247 
2729 59.56  421 399  0.238 
2730 59.58  459 411  0.218 
2731 59.60  467 419  0.214 
2732 59.62  465 423  0.215 
2733 59.64  469 424  0.213 
2734 59.66  463 420  0.216 
2735 59.68  455 412  0.220 
2736 59.70  448 402  0.223 
2737 59.72  398 391  0.251 
2738 59.74  405 379  0.247 
2739 59.76  373 367  0.268 
2740 59.78  378 357  0.265 
2741 59.80  359 349  0.279 
2742 59.82  367 343  0.273 
2743 59.84  338 338  0.296 
2744 59.86  325 335  0.308 
2745 59.88  327 333  0.306 
2746 59.90  341 333  0.293 
2747 59.92  346 333  0.289 
2748 59.94  361 334  0.277 
2749 59.96  358 337  0.279 
2750 59.98  369 340  0.271 
2751 60.00  363 344  0.276 
2752 60.02  361 347  0.277 
2753 60.04  350 353  0.286 
2754 60.06  360 356  0.278 
2755 60.08  364 358  0.275 
2756 60.10  361 360  0.277 
2757 60.12  354 360  0.283 
2758 60.14  357 358  0.280 
2759 60.16  372 355  0.269 
2760 60.18  347 351  0.288 
2761 60.20  340 347  0.294 
2762 60.22  331 341  0.302 
2763 60.24  325 336  0.308 
2764 60.26  332 330  0.301 
2765 60.28  322 324  0.311 
2766 60.30  319 319  0.314 
2767 60.32  308 314  0.325 
2768 60.34  310 311  0.323 
2769 60.36  314 309  0.319 
2770 60.38  320 308  0.313 
2771 60.40  309 307  0.324 
2772 60.42  322 308  0.311 
2773 60.44  310 310  0.323 
2774 60.46  310 313  0.323 
2775 60.48  325 317  0.308 
2776 60.50  316 322  0.316 
2777 60.52  328 326  0.305 
2778 60.54  347 330  0.288 
2779 60.56  335 333  0.299 
2780 60.58  367 336  0.273 
2781 60.60  363 338  0.276 
2782 60.62  349 338  0.287 
2783 60.64  348 338  0.287 
2784 60.66  352 336  0.284 
2785 60.68  358 334  0.279 
2786 60.70  337 330  0.297 
2787 60.72  341 327  0.293 
2788 60.74  328 324  0.305 
2789 60.76  337 321  0.297 
2790 60.78  305 318  0.328 
2791 60.80  332 315  0.301 
2792 60.82  316 313  0.316 
2793 60.84  310 310  0.323 
2794 60.86  324 309  0.309 
2795 60.88  317 308  0.315 
2796 60.90  321 308  0.312 
2797 60.92  311 308  0.322 
2798 60.94  321 310  0.312 
2799 60.96  320 312  0.313 
2800 60.98  320 316  0.313 
2801 61.00  318 320  0.315 
2802 61.02  320 324  0.313 
2803 61.04  318 329  0.315 
2804 61.06  319 333  0.314 
2805 61.08  320 336  0.313 
2806 61.10  342 338  0.292 
2807 61.12  329 340  0.304 
2808 61.14  337 342  0.297 
2809 61.16  308 343  0.325 
2810 61.18  341 345  0.293 
2811 61.20  359 347  0.279 
2812 61.22  353 350  0.283 
2813 61.24  356 355  0.281 
2814 61.26  356 360  0.281 
2815 61.28  368 365  0.272 
2816 61.30  356 370  0.281 
2817 61.32  369 374  0.271 
2818 61.34  368 376  0.272 
2819 61.36  371 378  0.270 
2820 61.38  373 377  0.268 
2821 61.40  366 374  0.273 
2822 61.42  380 370  0.263 
2823 61.44  349 365  0.287 
2824 61.46  352 360  0.284 
2825 61.48  348 355  0.287 
2826 61.50  340 350  0.294 
2827 61.52  347 345  0.288 
2828 61.54  331 341  0.302 
2829 61.56  341 337  0.293 
2830 61.58  328 334  0.305 
2831 61.60  327 330  0.306 
2832 61.62  320 327  0.313 
2833 61.64  329 324  0.304 
2834 61.66  327 321  0.306 
2835 61.68  336 320  0.298 
2836 61.70  312 317  0.321 
2837 61.72  314 315  0.319 
2838 61.74  311 313  0.322 
2839 61.76  296 311  0.338 
2840 61.78  328 309  0.305 
2841 61.80  312 308  0.321 
2842 61.82  308 307  0.325 
2843 61.84  308 307  0.325 
2844 61.86  300 306  0.333 
2845 61.88  305 306  0.328 
2846 61.90  333 305  0.300 
2847 61.92  326 305  0.307 
2848 61.94  308 306  0.325 
2849 61.96  315 308  0.318 
2850 61.98  299 310  0.334 
2851 62.00  323 314  0.310 
2852 62.02  318 318  0.315 
2853 62.04  322 325  0.311 
2854 62.06  319 333  0.314 
2855 62.08  313 342  0.320 
2856 62.10  340 352  0.294 
2857 62.12  345 362  0.290 
2858 62.14  347 371  0.288 
2859 62.16  350 379  0.286 
2860 62.18  374 385  0.267 
2861 62.20  371 387  0.270 
2862 62.22  384 388  0.260 
2863 62.24  381 385  0.263 
2864 62.26  367 380  0.273 
2865 62.28  371 374  0.270 
2866 62.30  359 368  0.279 
2867 62.32  366 362  0.273 
2868 62.34  322 357  0.311 
2869 62.36  353 353  0.283 
2870 62.38  334 350  0.299 
2871 62.40  332 348  0.301 
2872 62.42  347 348  0.288 
2873 62.44  343 347  0.292 
2874 62.46  345 346  0.290 
2875 62.48  337 345  0.297 
2876 62.50  357 342  0.280 
2877 62.52  337 339  0.297 
2878 62.54  335 336  0.299 
2879 62.56  330 334  0.303 
2880 62.58  314 331  0.319 
2881 62.60  328 329  0.305 
2882 62.62  347 328  0.288 
2883 62.64  319 328  0.314 
2884 62.66  337 330  0.297 
2885 62.68  333 332  0.300 
2886 62.70  330 335  0.303 
2887 62.72  362 337  0.276 
2888 62.74  341 338  0.293 
2889 62.76  340 338  0.294 
2890 62.78  328 338  0.305 
2891 62.80  333 335  0.300 
2892 62.82  333 332  0.300 
2893 62.84  332 329  0.301 
2894 62.86  320 325  0.313 
2895 62.88  316 321  0.316 
2896 62.90  308 318  0.325 
2897 62.92  337 317  0.297 
2898 62.94  308 316  0.325 
2899 62.96  316 316  0.316 
2900 62.98  322 318  0.311 
2901 63.00  323 321  0.310 
2902 63.02  317 325  0.315 
2903 63.04  318 329  0.315 
2904 63.06  341 333  0.293 
2905 63.08  336 337  0.298 
2906 63.10  325 341  0.308 
2907 63.12  341 343  0.293 
2908 63.14  364 345  0.275 
2909 63.16  328 346  0.305 
2910 63.18  343 346  0.292 
2911 63.20  341 346  0.293 
2912 63.22  357 345  0.280 
2913 63.24  330 343  0.303 
2914 63.26  342 341  0.292 
2915 63.28  335 339  0.299 
2916 63.30  336 337  0.298 
2917 63.32  314 335  0.319 
2918 63.34  330 332  0.303 
2919 63.36  324 329  0.309 
2920 63.38  346 327  0.289 
2921 63.40  317 324  0.315 
2922 63.42  331 321  0.302 
2923 63.44  310 318  0.323 
2924 63.46  330 315  0.303 
2925 63.48  316 312  0.316 
2926 63.50  315 310  0.318 
2927 63.52  314 308  0.319 
2928 63.54  303 307  0.330 
2929 63.56  307 307  0.326 
2930 63.58  334 309  0.299 
2931 63.60  321 310  0.312 
2932 63.62  328 313  0.305 
2933 63.64  321 316  0.312 
2934 63.66  327 320  0.306 
2935 63.68  342 324  0.292 
2936 63.70  335 329  0.299 
2937 63.72  327 336  0.306 
2938 63.74  344 343  0.291 
2939 63.76  341 351  0.293 
2940 63.78  344 360  0.291 
2941 63.80  353 368  0.283 
2942 63.82  357 375  0.280 
2943 63.84  355 380  0.282 
2944 63.86  352 383  0.284 
2945 63.88  348 384  0.287 
2946 63.90  361 382  0.277 
2947 63.92  357 378  0.280 
2948 63.94  348 371  0.287 
2949 63.96  333 363  0.300 
2950 63.98  342 353  0.292 
2951 64.00  331 343  0.302 
2952 64.02  327 333  0.306 
2953 64.04  331 325  0.302 
2954 64.06  317 319  0.315 
2955 64.08  313 315  0.320 
2956 64.10  319 312  0.314 
2957 64.12  305 312  0.328 
2958 64.14  311 314  0.322 
2959 64.16  307 317  0.326 
2960 64.18  316 321  0.316 
2961 64.20  308 327  0.325 
2962 64.22  319 332  0.314 
2963 64.24  339 339  0.295 
2964 64.26  350 346  0.286 
2965 64.28  358 353  0.279 
2966 64.30  362 359  0.276 
2967 64.32  386 363  0.259 
2968 64.34  356 366  0.281 
2969 64.36  372 367  0.269 
2970 64.38  376 367  0.266 
2971 64.40  361 365  0.277 
2972 64.42  350 362  0.286 
2973 64.44  357 357  0.280 
2974 64.46  351 350  0.285 
2975 64.48  322 344  0.311 
2976 64.50  322 336  0.311 
2977 64.52  309 329  0.324 
2978 64.54  320 322  0.313 
2979 64.56  312 316  0.321 
2980 64.58  301 311  0.332 
2981 64.60  302 308  0.331 
2982 64.62  319 306  0.314 
2983 64.64  310 305  0.323 
2984 64.66  298 305  0.336 
2985 64.68  301 306  0.332 
2986 64.70  307 308  0.326 
2987 64.72  309 312  0.324 
2988 64.74  319 315  0.314 
2989 64.76  332 317  0.301 
2990 64.78  308 321  0.325 
2991 64.80  311 323  0.322 
2992 64.82  333 324  0.300 
2993 64.84  321 325  0.312 
2994 64.86  313 324  0.320 
2995 64.88  330 323  0.303 
2996 64.90  321 321  0.312 
2997 64.92  318 319  0.315 
2998 64.94  329 316  0.304 
2999 64.96  310 313  0.323 
3000 64.98  289 311  0.346 
3001 65.00  301 309  0.332 
3002 65.02  314 307  0.319 
3003 65.04  311 305  0.322 
3004 65.06  316 304  0.316 
3005 65.08  288 303  0.347 
3006 65.10  299 303  0.334 
3007 65.12  301 302  0.332 
3008 65.14  312 302  0.321 
3009 65.16  305 301  0.328 
3010 65.18  319 301  0.314 
3011 65.20  319 300  0.314 
3012 65.22  288 301  0.347 
3013 65.24  307 300  0.326 
3014 65.26  290 301  0.345 
3015 65.28  299 301  0.334 
3016 65.30  307 301  0.326 
3017 65.32  302 302  0.331 
3018 65.34  294 303  0.340 
3019 65.36  283 305  0.353 
3020 65.38  303 306  0.330 
3021 65.40  298 308  0.336 
3022 65.42  297 310  0.337 
3023 65.44  294 312  0.340 
3024 65.46  302 314  0.331 
3025 65.48  289 315  0.346 
3026 65.50  302 316  0.331 
3027 65.52  297 316  0.337 
3028 65.54  322 315  0.311 
3029 65.56  312 314  0.321 
3030 65.58  307 312  0.326 
3031 65.60  312 311  0.321 
3032 65.62  307 310  0.326 
3033 65.64  305 309  0.328 
3034 65.66  319 309  0.314 
3035 65.68  303 311  0.330 
3036 65.70  315 315  0.318 
3037 65.72  324 320  0.309 
3038 65.74  324 327  0.309 
3039 65.76  351 334  0.285 
3040 65.78  340 342  0.294 
3041 65.80  355 349  0.282 
3042 65.82  375 354  0.267 
3043 65.84  370 358  0.270 
3044 65.86  349 360  0.287 
3045 65.88  376 360  0.266 
3046 65.90  370 357  0.270 
3047 65.92  350 351  0.286 
3048 65.94  326 345  0.307 
3049 65.96  324 337  0.309 
3050 65.98  308 329  0.325 
3051 66.00  325 321  0.308 
3052 66.02  300 313  0.333 
3053 66.04  316 307  0.316 
3054 66.06  295 302  0.339 
3055 66.08  291 298  0.344 
3056 66.10  302 296  0.331 
3057 66.12  296 294  0.338 
3058 66.14  310 293  0.323 
3059 66.16  307 292  0.326 
3060 66.18  293 292  0.341 
3061 66.20  292 293  0.343 
3062 66.22  295 293  0.339 
3063 66.24  297 294  0.337 
3064 66.26  299 295  0.334 
3065 66.28  287 296  0.348 
3066 66.30  311 298  0.322 
3067 66.32  289 302  0.346 
3068 66.34  311 305  0.322 
3069 66.36  311 308  0.322 
3070 66.38  317 311  0.315 
3071 66.40  319 314  0.314 
3072 66.42  318 317  0.315 
3073 66.44  330 320  0.303 
3074 66.46  322 322  0.311 
3075 66.48  326 323  0.307 
3076 66.50  316 324  0.316 
3077 66.52  322 324  0.311 
3078 66.54  301 323  0.332 
3079 66.56  332 321  0.301 
3080 66.58  314 319  0.319 
3081 66.60  318 317  0.315 
3082 66.62  324 314  0.309 
3083 66.64  309 311  0.324 
3084 66.66  321 309  0.312 
3085 66.68  309 306  0.324 
3086 66.70  321 304  0.312 
3087 66.72  310 303  0.323 
3088 66.74  301 301  0.332 
3089 66.76  314 300  0.319 
3090 66.78  308 299  0.325 
3091 66.80  307 299  0.326 
3092 66.82  327 299  0.306 
3093 66.84  307 300  0.326 
3094 66.86  307 301  0.326 
3095 66.88  321 302  0.312 
3096 66.90  310 304  0.323 
3097 66.92  309 305  0.324 
3098 66.94  316 307  0.316 
3099 66.96  329 308  0.304 
3100 66.98  319 310  0.314 
3101 67.00  326 311  0.307 
3102 67.02  326 313  0.307 
3103 67.04  320 314  0.313 
3104 67.06  322 315  0.311 
3105 67.08  323 317  0.310 
3106 67.10  314 318  0.319 
3107 67.12  319 319  0.314 
3108 67.14  325 320  0.308 
3109 67.16  331 320  0.302 
3110 67.18  327 320  0.306 
3111 67.20  332 321  0.301 
3112 67.22  332 321  0.301 
3113 67.24  318 320  0.315 
3114 67.26  332 319  0.301 
3115 67.28  330 318  0.303 
3116 67.30  329 316  0.304 
3117 67.32  328 314  0.305 
3118 67.34  316 312  0.316 
3119 67.36  296 309  0.338 
3120 67.38  307 307  0.326 
3121 67.40  307 305  0.326 
3122 67.42  323 302  0.310 
3123 67.44  306 300  0.327 
3124 67.46  295 298  0.339 
3125 67.48  314 296  0.319 
3126 67.50  276 294  0.362 
3127 67.52  284 292  0.352 
3128 67.54  304 291  0.329 
3129 67.56  296 291  0.338 
3130 67.58  307 291  0.326 
3131 67.60  294 291  0.340 
3132 67.62  294 291  0.340 
3133 67.64  308 290  0.325 
3134 67.66  305 290  0.328 
3135 67.68  295 290  0.339 
3136 67.70  285 290  0.351 
3137 67.72  289 290  0.346 
3138 67.74  303 289  0.330 
3139 67.76  298 289  0.336 
3140 67.78  292 288  0.343 
3141 67.80  294 288  0.340 
3142 67.82  285 287  0.351 
3143 67.84  274 287  0.365 
3144 67.86  299 286  0.334 
3145 67.88  282 286  0.355 
3146 67.90  303 286  0.330 
3147 67.92  285 286  0.351 
3148 67.94  296 287  0.338 
3149 67.96  291 287  0.344 
3150 67.98  290 287  0.345 
3151 68.00  309 288  0.324 
3152 68.02  309 289  0.324 
3153 68.04  312 290  0.321 
3154 68.06  306 292  0.327 
3155 68.08  310 292  0.323 
3156 68.10  300 294  0.333 
3157 68.12  292 296  0.343 
3158 68.14  319 298  0.314 
3159 68.16  308 300  0.325 
3160 68.18  320 302  0.313 
3161 68.20  302 303  0.331 
3162 68.22  318 305  0.315 
3163 68.24  310 306  0.323 
3164 68.26  318 307  0.315 
3165 68.28  317 307  0.315 
3166 68.30  291 308  0.344 
3167 68.32  314 307  0.319 
3168 68.34  303 307  0.330 
3169 68.36  320 306  0.313 
3170 68.38  322 306  0.311 
3171 68.40  301 305  0.332 
3172 68.42  301 305  0.332 
3173 68.44  300 304  0.333 
3174 68.46  314 304  0.319 
3175 68.48  307 304  0.326 
3176 68.50  316 305  0.316 
3177 68.52  304 305  0.329 
3178 68.54  307 305  0.326 
3179 68.56  309 305  0.324 
3180 68.58  319 305  0.314 
3181 68.60  315 306  0.318 
3182 68.62  309 305  0.324 
3183 68.64  304 305  0.329 
3184 68.66  298 304  0.336 
3185 68.68  316 303  0.316 
3186 68.70  322 302  0.311 
3187 68.72  305 300  0.328 
3188 68.74  315 298  0.318 
3189 68.76  298 297  0.336 
3190 68.78  302 295  0.331 
3191 68.80  300 293  0.333 
3192 68.82  315 291  0.318 
3193 68.84  304 290  0.329 
3194 68.86  285 288  0.351 
3195 68.88  292 287  0.343 
3196 68.90  295 285  0.339 
3197 68.92  292 284  0.343 
3198 68.94  309 283  0.324 
3199 68.96  300 283  0.333 
3200 68.98  312 282  0.321 
3201 69.00  299 281  0.334 
3202 69.02  290 281  0.345 
3203 69.04  284 280  0.352 
3204 69.06  287 280  0.348 
3205 69.08  299 279  0.334 
3206 69.10  280 278  0.357 
3207 69.12  279 277  0.358 
3208 69.14  287 276  0.348 
3209 69.16  271 275  0.369 
3210 69.18  273 274  0.366 
3211 69.20  294 274  0.340 
3212 69.22  300 274  0.333 
3213 69.24  284 274  0.352 
3214 69.26  288 275  0.347 
3215 69.28  289 276  0.346 
3216 69.30  301 277  0.332 
3217 69.32  293 278  0.341 
3218 69.34  287 278  0.348 
3219 69.36  274 279  0.365 
3220 69.38  286 279  0.350 
3221 69.40  285 279  0.351 
3222 69.42  286 279  0.350 
3223 69.44  285 279  0.351 
3224 69.46  292 279  0.343 
3225 69.48  294 278  0.340 
3226 69.50  282 278  0.355 
3227 69.52  290 278  0.345 
3228 69.54  282 278  0.355 
3229 69.56  281 278  0.356 
3230 69.58  277 278  0.361 
3231 69.60  302 279  0.331 
3232 69.62  276 279  0.362 
3233 69.64  281 279  0.356 
3234 69.66  277 279  0.361 
3235 69.68  274 278  0.365 
3236 69.70  281 277  0.356 
3237 69.72  283 277  0.353 
3238 69.74  275 276  0.364 
3239 69.76  288 275  0.347 
3240 69.78  283 274  0.353 
3241 69.80  274 273  0.365 
3242 69.82  276 272  0.362 
3243 69.84  286 272  0.350 
3244 69.86  278 271  0.360 
3245 69.88  283 270  0.353 
3246 69.90  289 269  0.346 
3247 69.92  277 269  0.361 
3248 69.94  288 268  0.347 
3249 69.96  276 268  0.362 
3250 69.98  268 267  0.373 
3251 70.00  274 268  0.366 
# The following lines are used to test the character set of files sent by
# network email or other means. They are not part of the CIF data set.
# abcdefghijklmnopqrstuvwxyzABCDEFGHIJKLMNOPQRSTUVWXYZ0123456789
# !@#$%^&*()_+{}:"~<>?|\-=[];'`,./                 






_pd_proc_ls_prof_R_factor
0.0346
_pd_meas_2theta_range_max
70.0
_pd_proc_ls_background_function
;
fixed background by interpolation
;
_pd_proc_2theta_range_max
70.0
_cell_special_details
triclinic
_pd_proc_ls_prof_wR_expected
0.0316
_cell_volume
488.02(3)
_computing_structure_solution
'Reflex implemented in Materials Studio (Accelrys, 2011)'
_computing_structure_refinement
'GSAS (Larson & Von Dreele, 2004)'
_chemical_name_systematic
;
Bis(2-aminopyridinium) fumarate--fumaric acid (1/1)
;
_chemical_formula_iupac
'2C5 H7 N2 + , C4 H2 O4 2- , C4 H4 O4'
_refine_ls_structure_factor_coef
Inet
_pd_phase_name
FormII
_chemical_formula_weight
420.38
_refine_ls_hydrogen_treatment
noref
_pd_calc_method
'Rietveld refinement'
_cell_length_a
3.81686(7)
_pd_proc_info_excluded_regions
none
_cell_length_b
9.6064(3)
_cell_length_c
13.3605(4)
_refine_ls_matrix_type
full
_chemical_formula_moiety
'2(C5 H7 N2 +), C4 H2 O4 2-, C4 H4 O4'
_refine_ls_weighting_scheme
sigma
_pd_char_colour
white
_refine_ls_extinction_method
none
_pd_proc_ls_peak_cutoff
0.00100
_pd_spec_mounting
'borosilicate caplillary'
_cell_measurement_temperature
298
_pd_proc_2theta_range_inc
0.02
_symmetry_cell_setting
triclinic
_pd_char_particle_morphology
powder
_computing_data_reduction
'GSAS (Larson & Von Dreele, 2004)'
_pd_proc_ls_profile_function
'Thompson--Cox--Hastings pseudo-Voigt'
_cell_angle_gamma
91.7169(14)
_computing_publication_material
'publCIF (Westrip, 2010)'
_exptl_crystal_F_000
220
_cell_formula_units_Z
1
_computing_cell_refinement
'GSAS (Larson & Von Dreele, 2004)'
_refine_ls_goodness_of_fit_all
1.45
_diffrn_radiation_monochromator
'Ge 220'
_pd_spec_size_equat
0.7
_pd_meas_2theta_range_min
5.0
_computing_molecular_graphics
;
ORTEP-3 (Farrugia, 2012), DIAMOND (Brandenburg, 1999) and
Mercury
(Macrae <i>et al.</i>, 2008)
;
_exptl_crystal_density_diffrn
1.432
_diffrn_radiation_wavelength
1.54056
_pd_spec_mount_mode
transmission
_diffrn_measurement_device_type
'Rigaku SmartLab'
_refine_ls_number_constraints
0
_symmetry_space_group_name_Hall
'-P 1'
_refine_ls_shift/su_max
0.05
_exptl_absorpt_coefficient_mu
0.98
_diffrn_radiation_type
'Cu K\a1'
_computing_data_collection
'SmartLab software (Rigaku, 2013)'
_refine_ls_shift/su_mean
0.00
_refine_ls_number_restraints
77
_pd_proc_info_datetime
2013-03-23T00:24:11
_diffrn_ambient_temperature
298
_pd_proc_2theta_range_min
5.0
_pd_meas_2theta_range_inc
0.02
_exptl_absorpt_correction_type
none
_refine_ls_number_parameters
56
_pd_spec_size_axial
10
_cell_angle_beta
91.7433(14)
_symmetry_space_group_name_H-M
'P -1'
_pd_meas_scan_method
cont
_pd_proc_ls_prof_wR_factor
0.0460
_cell_angle_alpha
94.2974(15)
_pd_spec_shape
cylinder
_pd_proc_ls_pref_orient_corr
none
_atom_sites_solution_hydrogens
geom
_pd_meas_number_of_points
3251
_chemical_formula_sum
'C18 H20 N4 O8'
_pd_proc_number_of_points
3251
_pd_spec_size_thick
0.7
_chemical_melting_point
463
loop_
_symmetry_equiv_pos_site_id
_symmetry_equiv_pos_as_xyz
1 +x,+y,+z
-1 -x,-y,-z

loop_
_atom_type_symbol
_atom_type_number_in_cell
_atom_type_scat_cromer_mann_a1
_atom_type_scat_cromer_mann_a2
_atom_type_scat_cromer_mann_a3
_atom_type_scat_cromer_mann_a4
_atom_type_scat_cromer_mann_b1
_atom_type_scat_cromer_mann_b2
_atom_type_scat_cromer_mann_b3
_atom_type_scat_cromer_mann_b4
_atom_type_scat_cromer_mann_c
_atom_type_scat_dispersion_real
_atom_type_scat_dispersion_imag
_atom_type_scat_source
C 18.0 2.31000 20.8439 1.02000 10.2075 1.58860 0.56870 0.86500 51.6512 0.21560 0.000 0.000 International_Tables_Vol_C
N 4.0 12.2126 0.00570 3.13220 9.89330 2.01250 28.9975 1.16630 0.58260 -11.529 0.000 0.000 International_Tables_Vol_C
O 8.0 3.04850 13.2771 2.28680 5.70110 1.54630 0.32390 0.86700 32.9089 0.25080 0.000 0.000 International_Tables_Vol_C
H 20.0 0.49300 10.5109 0.32291 26.1257 0.14019 3.14236 0.04081 57.7997 0.00304 0.000 0.000 International_Tables_Vol_C

loop_
_atom_site_type_symbol
_atom_site_label
_atom_site_fract_x
_atom_site_fract_y
_atom_site_fract_z
_atom_site_u_iso_or_equiv
_atom_site_thermal_displace_type
_atom_site_occupancy
_atom_site_symmetry_multiplicity
C C1 0.4140(9) -0.0637(3) 0.3110(2) 0.0574(17) Uiso 1.0 2
C C2 0.5022(12) -0.1952(3) 0.2710(3) 0.0574(17) Uiso 1.0 2
C C3 0.6521(10) -0.2062(3) 0.1775(2) 0.0574(17) Uiso 1.0 2
C C4 0.7108(13) -0.0868(3) 0.1264(3) 0.0574(17) Uiso 1.0 2
C C5 0.6188(9) 0.0404(3) 0.1718(2) 0.0574(17) Uiso 1.0 2
N N1 0.4726(8) 0.0531(3) 0.2622(2) 0.0574(17) Uiso 1.0 2
N N2 0.2559(11) -0.0328(3) 0.4011(2) 0.0574(17) Uiso 1.0 2
C C6 0.0550(12) 0.4783(3) 0.4548(2) 0.0573(18) Uiso 1.0 2
C C7 0.1394(12) 0.3332(4) 0.4281(3) 0.0573(18) Uiso 1.0 2
O O1 0.2607(13) 0.3020(5) 0.3440(3) 0.0573(18) Uiso 1.0 2
O O2 0.1002(14) 0.2366(5) 0.4878(4) 0.0573(18) Uiso 1.0 2
C C8 0.0728(12) 0.5194(3) 0.0445(2) 0.0446(15) Uiso 1.0 2
C C9 0.1499(11) 0.4202(4) 0.1185(2) 0.0446(15) Uiso 1.0 2
O O3 0.2628(11) 0.4739(3) 0.2093(3) 0.0446(15) Uiso 1.0 2
O O4 0.1169(14) 0.2934(5) 0.1027(3) 0.0446(15) Uiso 1.0 2
H H1 0.09385 0.54597 0.40786 0.05 Uiso 1.0 2
H H2 0.45982 -0.2753 0.3065 0.05 Uiso 1.0 2
H H3 0.71397 -0.29491 0.14842 0.05 Uiso 1.0 2
H H4 0.81353 -0.09242 0.06245 0.05 Uiso 1.0 2
H H5 0.65775 0.12202 0.13712 0.05 Uiso 1.0 2
H H6 0.41278 0.13712 0.28949 0.05 Uiso 1.0 2
H H7 0.20681 -0.10125 0.44133 0.05 Uiso 1.0 2
H H8 0.21241 0.05613 0.42116 0.05 Uiso 1.0 2
H H9 0.10018 0.61646 0.06349 0.05 Uiso 1.0 2
H H10 0.30717 0.40402 0.24851 0.05 Uiso 1.0 2

loop_
_geom_bond_atom_site_label_1
_geom_bond_atom_site_label_2
_geom_bond_site_symmetry_1
_geom_bond_site_symmetry_2
_geom_bond_distance
_geom_bond_publ_flag
C1 C2 . 1_555 1.389(3) y
C1 N1 . 1_555 1.355(3) n
C1 N2 . 1_555 1.380(3) y
C2 C3 . 1_555 1.387(3) n
C2 H2 . 1_555 0.9466 n
C3 C4 . 1_555 1.394(3) y
C3 H3 . 1_555 0.9489 n
C4 C5 . 1_555 1.383(3) y
C4 H4 . 1_555 0.9491 n
C5 H5 . 1_555 0.9503 n
N1 C1 . 1_555 1.355(3) y
N1 C5 . 1_555 1.346(3) n
N1 H6 . 1_555 0.8991 n
N2 H7 . 1_555 0.8988 n
N2 H8 . 1_555 0.8980 n
C6 C6 . -1_566 1.332(6) y
C6 C7 . 1_555 1.461(3) n
C6 H1 . 1_555 0.9481 n
O1 C7 . 1_555 1.247(4) y
O2 C7 . 1_555 1.277(4) n
C8 C8 . -1_565 1.321(6) y
C8 C9 . 1_555 1.452(3) n
C8 H9 . 1_555 0.9500 n
O3 C9 . 1_555 1.336(3) y
O3 H10 . 1_555 0.8986 n
O4 C9 . 1_555 1.223(4) y

loop_
_geom_angle_atom_site_label_1
_geom_angle_atom_site_label_2
_geom_angle_atom_site_label_3
_geom_angle_site_symmetry_1
_geom_angle_site_symmetry_2
_geom_angle_site_symmetry_3
_geom_angle
_geom_angle_publ_flag
C2 C1 N1 1_555 . 1_555 122.2(2) y
C2 C1 N2 1_555 . 1_555 126.6(2) y
N1 C1 N2 1_555 . 1_555 111.1(2) n
C1 C2 C3 1_555 . 1_555 118.4(2) y
C1 C2 H2 1_555 . 1_555 120.74 n
C3 C2 H2 1_555 . 1_555 120.86 n
C2 C3 C4 1_555 . 1_555 119.8(2) y
C2 C3 H3 1_555 . 1_555 120.04 n
C4 C3 H3 1_555 . 1_555 120.12 n
C3 C4 C5 1_555 . 1_555 118.2(2) n
C3 C4 H4 1_555 . 1_555 120.98 n
C5 C4 H4 1_555 . 1_555 120.80 n
C4 C5 N1 1_555 . 1_555 122.8(2) y
C4 C5 H5 1_555 . 1_555 118.52 n
N1 C5 H5 1_555 . 1_555 118.71 n
C1 N1 C5 1_555 . 1_555 118.6(2) y
C1 N1 H6 1_555 . 1_555 120.71 n
C5 N1 H6 1_555 . 1_555 120.73 n
C1 N2 H7 1_555 . 1_555 119.95 n
C1 N2 H8 1_555 . 1_555 120.11 n
H7 N2 H8 1_555 . 1_555 119.87 n
C6 C6 C7 -1_566 . 1_555 122.6(3) y
C6 C6 H1 -1_566 . 1_555 118.1 n
C7 C6 H1 1_555 . 1_555 119.18 n
C6 C7 O1 1_555 . 1_555 118.9(3) n
C6 C7 O2 1_555 . 1_555 122.9(3) n
O1 C7 O2 1_555 . 1_555 118.2(3) y
C8 C8 C9 -1_565 . 1_555 122.4(3) n
C8 C8 H9 -1_565 . 1_555 118.1 n
C9 C8 H9 1_555 . 1_555 119.01 n
C8 C9 O3 1_555 . 1_555 116.6(2) n
C8 C9 O4 1_555 . 1_555 124.4(3) y
O3 C9 O4 1_555 . 1_555 119.1(3) y
C9 O3 H10 1_555 . 1_555 109.29 n

loop_
_geom_hbond_atom_site_label_d
_geom_hbond_atom_site_label_h
_geom_hbond_atom_site_label_a
_geom_hbond_site_symmetry_a
_geom_hbond_distance_dh
_geom_hbond_distance_ha
_geom_hbond_distance_da
_geom_hbond_angle_dha
N1 H6 O1 . 0.90 1.812 2.710(5) 176.0
N2 H8 O2 . 0.90 1.954 2.842(5) 170.0
N2 H7 O2 -1_556 0.90 2.030 2.877(6) 156.7
O3 H10 O1 . 0.90 1.676 2.532(5) 157.9



# powder data simulated using PLATON:

data_3_simulated_1.54056

_publcif_pd_cifplot 'simulated 2021-03-25'

