data_I_90K
_pd_block_id 2013-03-03T09:00|14FcPhAq-90|E._Nishibori|LDScamera.BL02B2.SPring8

_pd_proc_2theta_range_min         2.000  
_pd_proc_2theta_range_max         70.00

loop_
_pd_proc_2theta_corrected   
_pd_proc_intensity_total
_pd_calc_intensity_total
_pd_proc_intensity_bkg_calc
_pd_proc_ls_weight    
_pd_proc_point_id

   2.000   1297.450   1295.302   1295.201  0.000771 1 
   2.010   1284.040   1294.201   1294.093  0.000779 2 
   2.020   1289.920   1293.134   1293.020  0.000775 3 
   2.030   1292.150   1292.106   1291.984  0.000774 4 
   2.040   1296.910   1291.118   1290.988  0.000771 5 
   2.050   1292.200   1290.171   1290.032  0.000774 6 
   2.060   1299.000   1289.267   1289.117  0.000770 7 
   2.070   1284.260   1288.403   1288.243  0.000779 8 
   2.080   1292.180   1287.581   1287.408  0.000774 9 
   2.090   1285.410   1286.799   1286.613  0.000778 10
   2.100   1293.860   1286.055   1285.855  0.000773 11
   2.110   1286.530   1285.350   1285.133  0.000777 12
   2.120   1295.420   1284.680   1284.446  0.000772 13
   2.130   1286.780   1284.046   1283.791  0.000777 14
   2.140   1289.400   1283.444   1283.167  0.000776 15
   2.150   1282.400   1282.876   1282.573  0.000780 16
   2.160   1287.990   1282.338   1282.007  0.000776 17
   2.170   1285.890   1281.829   1281.467  0.000778 18
   2.180   1287.250   1281.350   1280.952  0.000777 19
   2.190   1273.590   1280.899   1280.461  0.000785 20
   2.200   1283.550   1280.476   1279.991  0.000779 21
   2.210   1280.990   1280.080   1279.542  0.000781 22
   2.220   1286.220   1279.711   1279.113  0.000777 23
   2.230   1276.420   1279.370   1278.701  0.000783 24
   2.240   1276.000   1279.058   1278.308  0.000784 25
   2.250   1271.740   1278.775   1277.930  0.000786 26
   2.260   1284.910   1278.524   1277.567  0.000778 27
   2.270   1278.660   1278.308   1277.219  0.000782 28
   2.280   1285.580   1278.130   1276.885  0.000778 29
   2.290   1278.880   1277.995   1276.563  0.000782 30
   2.300   1288.650   1277.912   1276.254  0.000776 31
   2.310   1275.430   1277.888   1275.956  0.000784 32
   2.320   1283.870   1277.939   1275.669  0.000779 33
   2.330   1281.950   1278.080   1275.392  0.000780 34
   2.340   1289.160   1278.338   1275.124  0.000776 35
   2.350   1281.980   1278.746   1274.866  0.000780 36
   2.360   1281.520   1279.353   1274.617  0.000780 37
   2.370   1274.440   1280.230   1274.376  0.000785 38
   2.380   1278.650   1281.477   1274.143  0.000782 39
   2.390   1278.470   1283.247   1273.917  0.000782 40
   2.400   1294.290   1285.768   1273.699  0.000773 41
   2.410   1292.010   1289.391   1273.487  0.000774 42
   2.420   1303.980   1294.659   1273.282  0.000767 43
   2.430   1305.030   1302.421   1273.084  0.000766 44
   2.440   1336.340   1313.974   1272.891  0.000748 45
   2.450   1366.340   1331.180   1272.704  0.000732 46
   2.460   1422.290   1356.265   1272.522  0.000703 47
   2.470   1470.090   1390.456   1272.346  0.000680 48
   2.480   1525.640   1430.179   1272.175  0.000655 49
   2.490   1549.080   1462.385   1272.009  0.000646 50
   2.500   1556.060   1468.391   1271.847  0.000643 51
   2.510   1491.540   1434.838   1271.690  0.000670 52
   2.520   1418.740   1385.954   1271.538  0.000705 53
   2.530   1349.500   1345.880   1271.390  0.000741 54
   2.540   1325.330   1319.206   1271.245  0.000755 55
   2.550   1298.210   1302.573   1271.105  0.000770 56
   2.560   1293.140   1292.234   1270.969  0.000773 57
   2.570   1284.610   1285.664   1270.836  0.000778 58
   2.580   1284.350   1281.357   1270.707  0.000779 59
   2.590   1276.080   1278.438   1270.581  0.000784 60
   2.600   1286.990   1276.394   1270.459  0.000777 61
   2.610   1269.570   1274.917   1270.340  0.000788 62
   2.620   1278.560   1273.820   1270.224  0.000782 63
   2.630   1279.190   1272.982   1270.112  0.000782 64
   2.640   1281.510   1272.327   1270.002  0.000780 65
   2.650   1278.950   1271.802   1269.896  0.000782 66
   2.660   1283.390   1271.374   1269.792  0.000779 67
   2.670   1270.080   1271.017   1269.692  0.000787 68
   2.680   1277.250   1270.714   1269.594  0.000783 69
   2.690   1276.150   1270.454   1269.498  0.000784 70
   2.700   1277.880   1270.227   1269.406  0.000783 71
   2.710   1271.290   1270.026   1269.316  0.000787 72
   2.720   1278.550   1269.847   1269.228  0.000782 73
   2.730   1264.540   1269.685   1269.143  0.000791 74
   2.740   1271.640   1269.538   1269.061  0.000786 75
   2.750   1272.630   1269.403   1268.981  0.000786 76
   2.760   1273.400   1269.278   1268.903  0.000785 77
   2.770   1275.490   1269.162   1268.827  0.000784 78
   2.780   1277.170   1269.054   1268.754  0.000783 79
   2.790   1263.430   1268.953   1268.683  0.000791 80
   2.800   1272.020   1268.858   1268.614  0.000786 81
   2.810   1268.570   1268.768   1268.547  0.000788 82
   2.820   1276.710   1268.683   1268.483  0.000783 83
   2.830   1272.350   1268.603   1268.420  0.000786 84
   2.840   1273.170   1268.526   1268.359  0.000785 85
   2.850   1268.420   1268.453   1268.301  0.000788 86
   2.860   1274.260   1268.384   1268.244  0.000785 87
   2.870   1266.510   1268.318   1268.189  0.000790 88
   2.880   1276.140   1268.255   1268.136  0.000784 89
   2.890   1271.490   1268.195   1268.085  0.000786 90
   2.900   1276.840   1268.137   1268.036  0.000783 91
   2.910   1261.150   1268.082   1267.988  0.000793 92
   2.920   1272.430   1268.030   1267.942  0.000786 93
   2.930   1267.170   1267.980   1267.898  0.000789 94
   2.940   1274.650   1267.932   1267.856  0.000785 95
   2.950   1271.210   1267.886   1267.815  0.000787 96
   2.960   1274.030   1267.842   1267.776  0.000785 97
   2.970   1265.900   1267.800   1267.738  0.000790 98
   2.980   1272.040   1267.760   1267.702  0.000786 99
   2.990   1270.870   1267.722   1267.667  0.000787 100
   3.000   1278.790   1267.686   1267.634  0.000782 101
   3.010   1270.660   1267.651   1267.603  0.000787 102
   3.020   1274.960   1267.618   1267.572  0.000784 103
   3.030   1265.530   1267.587   1267.544  0.000790 104
   3.040   1275.390   1267.557   1267.516  0.000784 105
   3.050   1273.700   1267.528   1267.490  0.000785 106
   3.060   1272.900   1267.502   1267.465  0.000786 107
   3.070   1269.250   1267.476   1267.442  0.000788 108
   3.080   1278.480   1267.452   1267.419  0.000782 109
   3.090   1266.150   1267.429   1267.398  0.000790 110
   3.100   1275.810   1267.408   1267.378  0.000784 111
   3.110   1273.680   1267.388   1267.360  0.000785 112
   3.120   1277.380   1267.369   1267.342  0.000783 113
   3.130   1269.860   1267.351   1267.326  0.000787 114
   3.140   1279.400   1267.334   1267.310  0.000782 115
   3.150   1263.720   1267.319   1267.296  0.000791 116
   3.160   1273.080   1267.305   1267.283  0.000785 117
   3.170   1269.970   1267.291   1267.270  0.000787 118
   3.180   1275.730   1267.279   1267.259  0.000784 119
   3.190   1271.230   1267.268   1267.249  0.000787 120
   3.200   1275.830   1267.257   1267.239  0.000784 121
   3.210   1260.860   1267.248   1267.230  0.000793 122
   3.220   1270.960   1267.239   1267.223  0.000787 123
   3.230   1272.060   1267.232   1267.216  0.000786 124
   3.240   1272.780   1267.225   1267.209  0.000786 125
   3.250   1268.070   1267.219   1267.204  0.000789 126
   3.260   1275.750   1267.214   1267.200  0.000784 127
   3.270   1260.130   1267.209   1267.196  0.000794 128
   3.280   1268.340   1267.206   1267.193  0.000788 129
   3.290   1265.150   1267.203   1267.190  0.000790 130
   3.300   1275.570   1267.200   1267.188  0.000784 131
   3.310   1268.350   1267.199   1267.187  0.000788 132
   3.320   1274.130   1267.198   1267.187  0.000785 133
   3.330   1260.810   1267.197   1267.187  0.000793 134
   3.340   1269.400   1267.198   1267.187  0.000788 135
   3.350   1261.530   1267.198   1267.188  0.000793 136
   3.360   1270.550   1267.200   1267.190  0.000787 137
   3.370   1265.700   1267.202   1267.192  0.000790 138
   3.380   1272.160   1267.204   1267.195  0.000786 139
   3.390   1261.640   1267.207   1267.198  0.000793 140
   3.400   1269.640   1267.211   1267.202  0.000788 141
   3.410   1260.940   1267.215   1267.206  0.000793 142
   3.420   1270.690   1267.219   1267.211  0.000787 143
   3.430   1263.230   1267.224   1267.216  0.000792 144
   3.440   1265.980   1267.229   1267.222  0.000790 145
   3.450   1260.360   1267.235   1267.228  0.000793 146
   3.460   1264.010   1267.241   1267.234  0.000791 147
   3.470   1260.710   1267.247   1267.241  0.000793 148
   3.480   1270.650   1267.254   1267.248  0.000787 149
   3.490   1264.550   1267.262   1267.255  0.000791 150
   3.500   1270.440   1267.270   1267.263  0.000787 151
   3.510   1262.990   1267.278   1267.272  0.000792 152
   3.520   1271.740   1267.286   1267.281  0.000786 153
   3.530   1269.350   1267.295   1267.290  0.000788 154
   3.540   1271.780   1267.305   1267.299  0.000786 155
   3.550   1265.980   1267.314   1267.309  0.000790 156
   3.560   1271.120   1267.325   1267.320  0.000787 157
   3.570   1263.210   1267.335   1267.330  0.000792 158
   3.580   1270.720   1267.346   1267.341  0.000787 159
   3.590   1264.470   1267.358   1267.353  0.000791 160
   3.600   1271.810   1267.370   1267.365  0.000786 161
   3.610   1269.950   1267.382   1267.378  0.000787 162
   3.620   1270.540   1267.395   1267.391  0.000787 163
   3.630   1261.120   1267.408   1267.404  0.000793 164
   3.640   1268.080   1267.422   1267.418  0.000789 165
   3.650   1265.320   1267.436   1267.432  0.000790 166
   3.660   1266.380   1267.451   1267.447  0.000790 167
   3.670   1264.220   1267.467   1267.463  0.000791 168
   3.680   1266.630   1267.483   1267.479  0.000789 169
   3.690   1264.260   1267.499   1267.496  0.000791 170
   3.700   1268.820   1267.540   1267.537  0.000788 171
   3.710   1268.970   1267.558   1267.555  0.000788 172
   3.720   1274.340   1267.577   1267.574  0.000785 173
   3.730   1272.640   1267.596   1267.593  0.000786 174
   3.740   1279.680   1267.616   1267.613  0.000781 175
   3.750   1265.060   1267.637   1267.634  0.000790 176
   3.760   1272.990   1267.659   1267.656  0.000786 177
   3.770   1273.990   1267.681   1267.678  0.000785 178
   3.780   1279.470   1267.704   1267.701  0.000782 179
   3.790   1270.470   1267.729   1267.726  0.000787 180
   3.800   1273.710   1267.754   1267.751  0.000785 181
   3.810   1264.840   1267.787   1267.777  0.000791 182
   3.820   1269.540   1267.814   1267.804  0.000788 183
   3.830   1268.950   1267.843   1267.832  0.000788 184
   3.840   1276.140   1267.873   1267.862  0.000784 185
   3.850   1264.720   1267.903   1267.892  0.000791 186
   3.860   1276.190   1267.935   1267.924  0.000784 187
   3.870   1261.280   1267.968   1267.957  0.000793 188
   3.880   1279.540   1268.003   1267.991  0.000782 189
   3.890   1270.010   1268.038   1268.026  0.000787 190
   3.900   1272.310   1268.075   1268.063  0.000786 191
   3.910   1268.820   1268.114   1268.101  0.000788 192
   3.920   1272.480   1268.154   1268.140  0.000786 193
   3.930   1261.290   1268.195   1268.181  0.000793 194
   3.940   1273.620   1268.238   1268.224  0.000785 195
   3.950   1266.890   1268.282   1268.268  0.000789 196
   3.960   1276.010   1268.328   1268.313  0.000784 197
   3.970   1271.980   1268.376   1268.360  0.000786 198
   3.980   1275.010   1268.425   1268.409  0.000784 199
   3.990   1261.540   1268.477   1268.460  0.000793 200
   4.000   1266.070   1268.530   1268.513  0.000790 201
   4.010   1265.940   1268.584   1268.567  0.000790 202
   4.020   1266.800   1268.641   1268.623  0.000789 203
   4.030   1266.340   1268.700   1268.681  0.000790 204
   4.040   1272.010   1268.760   1268.741  0.000786 205
   4.050   1257.330   1268.823   1268.803  0.000795 206
   4.060   1265.090   1268.888   1268.867  0.000790 207
   4.070   1265.180   1268.955   1268.934  0.000790 208
   4.080   1270.060   1269.024   1269.002  0.000787 209
   4.090   1267.390   1269.095   1269.073  0.000789 210
   4.100   1267.650   1269.169   1269.145  0.000789 211
   4.110   1261.190   1269.245   1269.221  0.000793 212
   4.120   1271.410   1269.323   1269.298  0.000787 213
   4.130   1265.360   1269.404   1269.378  0.000790 214
   4.140   1266.380   1269.487   1269.460  0.000790 215
   4.150   1263.130   1269.572   1269.544  0.000792 216
   4.160   1267.180   1269.660   1269.631  0.000789 217
   4.170   1258.960   1269.751   1269.721  0.000794 218
   4.180   1272.050   1269.844   1269.813  0.000786 219
   4.190   1274.890   1269.940   1269.908  0.000784 220
   4.200   1277.200   1270.039   1270.005  0.000783 221
   4.210   1273.340   1270.140   1270.105  0.000785 222
   4.220   1272.600   1270.244   1270.207  0.000786 223
   4.230   1268.320   1270.351   1270.313  0.000788 224
   4.240   1279.360   1270.460   1270.421  0.000782 225
   4.250   1274.870   1270.573   1270.532  0.000784 226
   4.260   1279.420   1270.688   1270.645  0.000782 227
   4.270   1270.950   1270.806   1270.762  0.000787 228
   4.280   1277.530   1270.928   1270.881  0.000783 229
   4.290   1270.850   1271.062   1271.003  0.000787 230
   4.300   1274.940   1271.189   1271.128  0.000784 231
   4.310   1273.270   1271.320   1271.257  0.000785 232
   4.320   1275.770   1271.453   1271.387  0.000784 233
   4.330   1269.530   1271.590   1271.521  0.000788 234
   4.340   1279.800   1271.730   1271.658  0.000781 235
   4.350   1263.940   1271.873   1271.798  0.000791 236
   4.360   1271.230   1272.019   1271.941  0.000787 237
   4.370   1271.470   1272.169   1272.087  0.000786 238
   4.380   1272.470   1272.321   1272.236  0.000786 239
   4.390   1269.120   1272.477   1272.388  0.000788 240
   4.400   1275.030   1272.636   1272.543  0.000784 241
   4.410   1266.850   1272.799   1272.701  0.000789 242
   4.420   1271.590   1272.965   1272.862  0.000786 243
   4.430   1265.470   1273.134   1273.026  0.000790 244
   4.440   1271.850   1273.307   1273.193  0.000786 245
   4.450   1267.220   1273.483   1273.363  0.000789 246
   4.460   1272.230   1273.662   1273.536  0.000786 247
   4.470   1266.810   1273.845   1273.713  0.000789 248
   4.480   1275.910   1274.032   1273.892  0.000784 249
   4.490   1276.720   1274.222   1274.074  0.000783 250
   4.500   1274.790   1274.416   1274.259  0.000784 251
   4.510   1273.000   1274.613   1274.447  0.000786 252
   4.520   1275.450   1274.814   1274.638  0.000784 253
   4.530   1266.120   1275.019   1274.832  0.000790 254
   4.540   1274.560   1275.228   1275.029  0.000785 255
   4.550   1270.710   1275.441   1275.229  0.000787 256
   4.560   1278.190   1275.657   1275.431  0.000782 257
   4.570   1275.290   1275.878   1275.636  0.000784 258
   4.580   1276.840   1276.103   1275.844  0.000783 259
   4.590   1266.690   1276.333   1276.055  0.000789 260
   4.600   1275.500   1276.567   1276.269  0.000784 261
   4.610   1272.930   1276.806   1276.485  0.000786 262
   4.620   1282.060   1277.050   1276.703  0.000780 263
   4.630   1272.510   1277.309   1276.925  0.000786 264
   4.640   1279.980   1277.564   1277.148  0.000781 265
   4.650   1263.890   1277.825   1277.374  0.000791 266
   4.660   1275.120   1278.093   1277.603  0.000784 267
   4.670   1269.400   1278.367   1277.834  0.000788 268
   4.680   1274.680   1278.650   1278.067  0.000785 269
   4.690   1270.580   1278.941   1278.302  0.000787 270
   4.700   1276.970   1279.242   1278.539  0.000783 271
   4.710   1272.650   1279.554   1278.779  0.000786 272
   4.720   1273.620   1279.878   1279.020  0.000785 273
   4.730   1277.710   1280.217   1279.263  0.000783 274
   4.740   1280.060   1280.572   1279.509  0.000781 275
   4.750   1272.650   1280.947   1279.755  0.000786 276
   4.760   1282.640   1281.345   1280.004  0.000780 277
   4.770   1266.780   1281.771   1280.254  0.000789 278
   4.780   1278.830   1282.231   1280.506  0.000782 279
   4.790   1275.890   1282.732   1280.759  0.000784 280
   4.800   1283.310   1283.283   1281.013  0.000779 281
   4.810   1278.190   1283.899   1281.269  0.000782 282
   4.820   1282.740   1284.595   1281.526  0.000780 283
   4.830   1271.490   1285.394   1281.784  0.000786 284
   4.840   1282.530   1286.327   1282.043  0.000780 285
   4.850   1280.260   1287.437   1282.302  0.000781 286
   4.860   1284.810   1288.782   1282.563  0.000778 287
   4.870   1284.190   1290.447   1282.824  0.000779 288
   4.880   1283.200   1292.552   1283.086  0.000779 289
   4.890   1278.240   1295.276   1283.348  0.000782 290
   4.900   1284.780   1298.887   1283.611  0.000778 291
   4.910   1289.610   1303.790   1283.874  0.000775 292
   4.920   1300.140   1310.618   1284.137  0.000769 293
   4.930   1304.480   1320.362   1284.400  0.000767 294
   4.940   1324.720   1334.572   1284.664  0.000755 295
   4.950   1344.970   1355.618   1284.927  0.000744 296
   4.960   1391.930   1386.816   1285.190  0.000718 297
   4.970   1441.290   1431.710   1285.453  0.000694 298
   4.980   1513.410   1490.682   1285.715  0.000661 299
   4.990   1567.040   1553.154   1285.977  0.000638 300
   5.000   1598.650   1592.471   1286.238  0.000626 301
   5.010   1565.370   1582.251   1286.499  0.000639 302
   5.020   1496.540   1526.964   1286.759  0.000668 303
   5.030   1423.270   1460.801   1287.018  0.000703 304
   5.040   1374.480   1406.552   1287.277  0.000728 305
   5.050   1338.230   1368.577   1287.534  0.000747 306
   5.060   1324.750   1343.529   1287.791  0.000755 307
   5.070   1298.410   1327.217   1288.046  0.000770 308
   5.080   1299.480   1316.507   1288.300  0.000770 309
   5.090   1291.750   1309.360   1288.554  0.000774 310
   5.100   1294.870   1304.503   1288.805  0.000772 311
   5.110   1285.770   1301.147   1289.056  0.000778 312
   5.120   1296.040   1298.793   1289.305  0.000772 313
   5.130   1282.710   1297.125   1289.553  0.000780 314
   5.140   1290.020   1295.936   1289.799  0.000775 315
   5.150   1288.090   1295.087   1290.044  0.000776 316
   5.160   1295.200   1294.485   1290.288  0.000772 317
   5.170   1289.670   1294.064   1290.530  0.000775 318
   5.180   1295.370   1293.780   1290.770  0.000772 319
   5.190   1285.040   1293.599   1291.009  0.000778 320
   5.200   1291.620   1293.496   1291.246  0.000774 321
   5.210   1289.470   1293.455   1291.482  0.000776 322
   5.220   1298.360   1293.462   1291.716  0.000770 323
   5.230   1290.400   1293.507   1291.949  0.000775 324
   5.240   1292.530   1293.583   1292.180  0.000774 325
   5.250   1280.310   1293.683   1292.410  0.000781 326
   5.260   1287.520   1293.803   1292.638  0.000777 327
   5.270   1291.050   1293.940   1292.865  0.000775 328
   5.280   1292.490   1294.090   1293.090  0.000774 329
   5.290   1287.020   1294.252   1293.314  0.000777 330
   5.300   1294.230   1294.423   1293.536  0.000773 331
   5.310   1285.840   1294.603   1293.757  0.000778 332
   5.320   1290.850   1294.790   1293.977  0.000775 333
   5.330   1293.930   1294.983   1294.196  0.000773 334
   5.340   1302.740   1295.181   1294.414  0.000768 335
   5.350   1297.010   1295.385   1294.630  0.000771 336
   5.360   1300.240   1295.594   1294.845  0.000769 337
   5.370   1287.460   1295.808   1295.060  0.000777 338
   5.380   1291.960   1296.026   1295.273  0.000774 339
   5.390   1288.330   1296.248   1295.486  0.000776 340
   5.400   1293.440   1296.476   1295.698  0.000773 341
   5.410   1290.560   1296.709   1295.909  0.000775 342
   5.420   1299.340   1296.947   1296.120  0.000770 343
   5.430   1288.690   1297.191   1296.330  0.000776 344
   5.440   1295.280   1297.442   1296.540  0.000772 345
   5.450   1294.670   1297.701   1296.750  0.000772 346
   5.460   1297.420   1297.978   1296.959  0.000771 347
   5.470   1296.410   1298.255   1297.168  0.000771 348
   5.480   1299.770   1298.544   1297.377  0.000769 349
   5.490   1288.390   1298.847   1297.586  0.000776 350
   5.500   1298.020   1299.165   1297.795  0.000770 351
   5.510   1297.930   1299.503   1298.004  0.000770 352
   5.520   1303.830   1299.863   1298.214  0.000767 353
   5.530   1300.630   1300.251   1298.424  0.000769 354
   5.540   1305.510   1300.672   1298.634  0.000766 355
   5.550   1293.470   1301.136   1298.845  0.000773 356
   5.560   1301.030   1301.650   1299.057  0.000769 357
   5.570   1298.990   1302.230   1299.269  0.000770 358
   5.580   1303.680   1302.893   1299.482  0.000767 359
   5.590   1301.290   1303.662   1299.696  0.000768 360
   5.600   1304.950   1304.571   1299.911  0.000766 361
   5.610   1295.300   1305.664   1300.128  0.000772 362
   5.620   1311.040   1307.004   1300.345  0.000763 363
   5.630   1310.330   1308.683   1300.563  0.000763 364
   5.640   1307.210   1310.832   1300.783  0.000765 365
   5.650   1303.910   1313.647   1301.004  0.000767 366
   5.660   1312.650   1317.424   1301.227  0.000762 367
   5.670   1310.680   1322.615   1301.451  0.000763 368
   5.680   1315.080   1329.923   1301.676  0.000760 369
   5.690   1322.450   1340.442   1301.904  0.000756 370
   5.700   1341.390   1355.839   1302.132  0.000745 371
   5.710   1353.280   1378.492   1302.363  0.000739 372
   5.720   1383.740   1411.182   1302.596  0.000723 373
   5.730   1415.880   1455.229   1302.830  0.000706 374
   5.740   1481.610   1505.538   1303.066  0.000675 375
   5.750   1517.270   1544.992   1303.304  0.000659 376
   5.760   1537.650   1551.179   1303.544  0.000650 377
   5.770   1504.130   1518.033   1303.787  0.000665 378
   5.780   1454.290   1466.884   1304.031  0.000688 379
   5.790   1399.670   1419.854   1304.277  0.000714 380
   5.800   1372.010   1384.922   1304.525  0.000729 381
   5.810   1342.520   1361.228   1304.776  0.000745 382
   5.820   1339.900   1345.666   1305.029  0.000746 383
   5.830   1327.460   1335.509   1305.284  0.000753 384
   5.840   1326.660   1328.863   1305.541  0.000754 385
   5.850   1313.690   1324.515   1305.800  0.000761 386
   5.860   1314.840   1321.704   1306.062  0.000761 387
   5.870   1309.270   1319.954   1306.326  0.000764 388
   5.880   1316.800   1318.969   1306.592  0.000759 389
   5.890   1311.350   1318.563   1306.860  0.000763 390
   5.900   1313.870   1318.626   1307.131  0.000761 391
   5.910   1308.690   1319.098   1307.404  0.000764 392
   5.920   1317.470   1319.956   1307.679  0.000759 393
   5.930   1313.620   1321.212   1307.956  0.000761 394
   5.940   1319.370   1322.904   1308.236  0.000758 395
   5.950   1313.170   1325.108   1308.517  0.000762 396
   5.960   1322.880   1327.939   1308.801  0.000756 397
   5.970   1315.170   1331.567   1309.088  0.000760 398
   5.980   1326.890   1336.250   1309.376  0.000754 399
   5.990   1326.950   1342.326   1309.666  0.000754 400
   6.000   1335.320   1350.329   1309.959  0.000749 401
   6.010   1332.930   1361.034   1310.253  0.000750 402
   6.020   1347.120   1375.606   1310.550  0.000742 403
   6.030   1352.460   1395.818   1310.849  0.000739 404
   6.040   1383.660   1424.396   1311.149  0.000723 405
   6.050   1413.340   1465.538   1311.452  0.000708 406
   6.060   1484.840   1525.585   1311.756  0.000673 407
   6.070   1569.820   1613.527   1312.063  0.000637 408
   6.080   1718.050   1739.987   1312.371  0.000582 409
   6.090   1885.660   1910.952   1312.681  0.000530 410
   6.100   2118.180   2110.623   1312.992  0.000472 411
   6.110   2282.840   2279.404   1313.306  0.000438 412
   6.120   2353.260   2330.016   1313.621  0.000425 413
   6.130   2237.660   2223.082   1313.937  0.000447 414
   6.140   2034.600   2024.890   1314.255  0.000491 415
   6.150   1811.400   1827.250   1314.575  0.000552 416
   6.160   1656.850   1672.949   1314.895  0.000604 417
   6.170   1534.160   1564.717   1315.218  0.000652 418
   6.180   1464.670   1491.737   1315.541  0.000683 419
   6.190   1410.490   1442.828   1315.866  0.000709 420
   6.200   1385.160   1409.744   1316.191  0.000722 421
   6.210   1362.670   1387.015   1316.518  0.000734 422
   6.220   1355.370   1371.131   1316.846  0.000738 423
   6.230   1345.830   1359.853   1317.175  0.000743 424
   6.240   1348.600   1351.739   1317.505  0.000742 425
   6.250   1335.470   1345.850   1317.835  0.000749 426
   6.260   1338.690   1341.565   1318.167  0.000747 427
   6.270   1327.450   1338.472   1318.499  0.000753 428
   6.280   1326.320   1336.288   1318.831  0.000754 429
   6.290   1329.770   1334.849   1319.165  0.000752 430
   6.300   1334.540   1334.041   1319.498  0.000749 431
   6.310   1324.560   1333.838   1319.832  0.000755 432
   6.320   1329.500   1334.210   1320.167  0.000752 433
   6.330   1317.570   1335.250   1320.501  0.000759 434
   6.340   1322.310   1337.115   1320.836  0.000756 435
   6.350   1323.660   1340.076   1321.171  0.000755 436
   6.360   1335.400   1344.579   1321.506  0.000749 437
   6.370   1331.660   1351.323   1321.841  0.000751 438
   6.380   1347.820   1361.358   1322.176  0.000742 439
   6.390   1347.360   1376.092   1322.510  0.000742 440
   6.400   1375.010   1396.910   1322.844  0.000727 441
   6.410   1389.840   1423.692   1323.178  0.000720 442
   6.420   1423.010   1451.743   1323.512  0.000703 443
   6.430   1427.320   1470.010   1323.845  0.000701 444
   6.440   1428.380   1467.574   1324.178  0.000700 445
   6.450   1405.860   1445.263   1324.510  0.000711 446
   6.460   1388.520   1416.005   1324.841  0.000720 447
   6.470   1367.550   1390.252   1325.171  0.000731 448
   6.480   1356.180   1371.232   1325.501  0.000737 449
   6.490   1342.160   1358.190   1325.829  0.000745 450
   6.500   1341.710   1349.479   1326.157  0.000745 451
   6.510   1327.900   1343.675   1326.484  0.000753 452
   6.520   1333.090   1339.781   1326.809  0.000750 453
   6.530   1329.450   1337.144   1327.133  0.000752 454
   6.540   1334.100   1335.344   1327.456  0.000750 455
   6.550   1327.370   1334.113   1327.778  0.000753 456
   6.560   1334.190   1333.275   1328.098  0.000750 457
   6.570   1321.260   1332.714   1328.417  0.000757 458
   6.580   1332.790   1332.351   1328.734  0.000750 459
   6.590   1334.690   1332.134   1329.050  0.000749 460
   6.600   1336.570   1332.034   1329.364  0.000748 461
   6.610   1327.770   1332.005   1329.676  0.000753 462
   6.620   1335.020   1332.038   1329.987  0.000749 463
   6.630   1325.710   1332.119   1330.296  0.000754 464
   6.640   1331.500   1332.236   1330.603  0.000751 465
   6.650   1330.490   1332.383   1330.908  0.000752 466
   6.660   1335.270   1332.552   1331.211  0.000749 467
   6.670   1335.120   1332.739   1331.512  0.000749 468
   6.680   1338.660   1332.941   1331.810  0.000747 469
   6.690   1336.600   1333.155   1332.107  0.000748 470
   6.700   1335.540   1333.378   1332.402  0.000749 471
   6.710   1338.910   1333.609   1332.694  0.000747 472
   6.720   1338.710   1333.845   1332.984  0.000747 473
   6.730   1334.190   1334.087   1333.272  0.000750 474
   6.740   1338.570   1334.332   1333.557  0.000747 475
   6.750   1330.400   1334.580   1333.840  0.000752 476
   6.760   1334.950   1334.831   1334.121  0.000749 477
   6.770   1336.080   1335.083   1334.399  0.000748 478
   6.780   1343.040   1335.337   1334.675  0.000745 479
   6.790   1342.740   1335.592   1334.948  0.000745 480
   6.800   1342.880   1335.847   1335.219  0.000745 481
   6.810   1335.080   1336.102   1335.487  0.000749 482
   6.820   1346.220   1336.357   1335.753  0.000743 483
   6.830   1333.900   1336.613   1336.016  0.000750 484
   6.840   1344.860   1336.868   1336.276  0.000744 485
   6.850   1333.380   1337.122   1336.534  0.000750 486
   6.860   1341.310   1337.376   1336.789  0.000746 487
   6.870   1329.470   1337.630   1337.041  0.000752 488
   6.880   1348.660   1337.883   1337.291  0.000741 489
   6.890   1342.740   1338.145   1337.538  0.000745 490
   6.900   1342.310   1338.397   1337.783  0.000745 491
   6.910   1337.080   1338.648   1338.025  0.000748 492
   6.920   1347.650   1338.900   1338.264  0.000742 493
   6.930   1336.590   1339.150   1338.500  0.000748 494
   6.940   1339.270   1339.401   1338.734  0.000747 495
   6.950   1342.560   1339.651   1338.965  0.000745 496
   6.960   1351.850   1339.894   1339.194  0.000740 497
   6.970   1344.790   1340.146   1339.419  0.000744 498
   6.980   1356.860   1340.397   1339.643  0.000737 499
   6.990   1338.600   1340.650   1339.863  0.000747 500
   7.000   1348.980   1340.903   1340.081  0.000741 501
   7.010   1343.750   1341.159   1340.296  0.000744 502
   7.020   1342.570   1341.416   1340.509  0.000745 503
   7.030   1343.980   1341.677   1340.719  0.000744 504
   7.040   1344.790   1341.940   1340.927  0.000744 505
   7.050   1330.540   1342.208   1341.133  0.000752 506
   7.060   1342.830   1342.482   1341.335  0.000745 507
   7.070   1336.030   1342.761   1341.536  0.000748 508
   7.080   1347.460   1343.048   1341.734  0.000742 509
   7.090   1336.760   1343.345   1341.929  0.000748 510
   7.100   1344.910   1343.652   1342.123  0.000744 511
   7.110   1335.910   1343.973   1342.314  0.000749 512
   7.120   1344.760   1344.310   1342.503  0.000744 513
   7.130   1340.530   1344.668   1342.689  0.000746 514
   7.140   1347.280   1345.049   1342.874  0.000742 515
   7.150   1345.050   1345.460   1343.056  0.000743 516
   7.160   1347.830   1345.908   1343.237  0.000742 517
   7.170   1338.710   1346.411   1343.415  0.000747 518
   7.180   1351.320   1346.961   1343.591  0.000740 519
   7.190   1351.240   1347.583   1343.766  0.000740 520
   7.200   1355.640   1348.295   1343.939  0.000738 521
   7.210   1346.070   1349.125   1344.109  0.000743 522
   7.220   1356.450   1350.119   1344.279  0.000737 523
   7.230   1348.340   1351.305   1344.446  0.000742 524
   7.240   1352.590   1352.764   1344.612  0.000739 525
   7.250   1356.760   1354.595   1344.776  0.000737 526
   7.260   1359.360   1356.943   1344.939  0.000736 527
   7.270   1358.820   1360.021   1345.100  0.000736 528
   7.280   1364.110   1364.160   1345.260  0.000733 529
   7.290   1356.620   1369.829   1345.419  0.000737 530
   7.300   1377.540   1377.775   1345.577  0.000726 531
   7.310   1380.010   1389.097   1345.733  0.000725 532
   7.320   1413.580   1405.321   1345.888  0.000707 533
   7.330   1427.980   1428.197   1346.043  0.000700 534
   7.340   1465.910   1458.622   1346.196  0.000682 535
   7.350   1489.170   1493.850   1346.348  0.000672 536
   7.360   1522.580   1524.128   1346.500  0.000657 537
   7.370   1534.500   1535.437   1346.651  0.000652 538
   7.380   1526.810   1521.760   1346.801  0.000655 539
   7.390   1492.600   1493.507   1346.950  0.000670 540
   7.400   1467.420   1465.748   1347.099  0.000681 541
   7.410   1436.390   1446.537   1347.248  0.000696 542
   7.420   1436.600   1437.670   1347.396  0.000696 543
   7.430   1432.850   1438.893   1347.544  0.000698 544
   7.440   1457.900   1450.346   1347.692  0.000686 545
   7.450   1487.290   1473.607   1347.840  0.000672 546
   7.460   1540.000   1511.911   1347.987  0.000649 547
   7.470   1589.150   1569.842   1348.135  0.000629 548
   7.480   1680.280   1651.009   1348.282  0.000595 549
   7.490   1769.320   1751.213   1348.430  0.000565 550
   7.500   1850.390   1847.493   1348.578  0.000540 551
   7.510   1870.520   1897.655   1348.726  0.000535 552
   7.520   1832.870   1870.270   1348.875  0.000546 553
   7.530   1719.000   1780.402   1349.024  0.000582 554
   7.540   1615.090   1674.131   1349.174  0.000619 555
   7.550   1530.940   1583.133   1349.324  0.000653 556
   7.560   1475.830   1515.890   1349.475  0.000678 557
   7.570   1433.140   1469.273   1349.627  0.000698 558
   7.580   1411.160   1437.651   1349.780  0.000709 559
   7.590   1385.320   1416.244   1349.933  0.000722 560
   7.600   1384.040   1401.678   1350.088  0.000723 561
   7.610   1373.450   1391.725   1350.244  0.000728 562
   7.620   1374.460   1384.950   1350.401  0.000728 563
   7.630   1366.860   1380.435   1350.559  0.000732 564
   7.640   1369.050   1377.599   1350.718  0.000730 565
   7.650   1361.680   1376.087   1350.879  0.000734 566
   7.660   1364.650   1375.701   1351.041  0.000733 567
   7.670   1367.810   1376.362   1351.204  0.000731 568
   7.680   1369.740   1378.097   1351.370  0.000730 569
   7.690   1367.850   1381.043   1351.536  0.000731 570
   7.700   1377.670   1385.463   1351.705  0.000726 571
   7.710   1374.120   1391.797   1351.875  0.000728 572
   7.720   1385.450   1400.725   1352.048  0.000722 573
   7.730   1397.500   1413.296   1352.222  0.000716 574
   7.740   1426.080   1431.088   1352.398  0.000701 575
   7.750   1443.460   1456.445   1352.576  0.000693 576
   7.760   1485.470   1492.616   1352.757  0.000673 577
   7.770   1527.410   1543.606   1352.939  0.000655 578
   7.780   1617.750   1612.598   1353.124  0.000618 579
   7.790   1716.830   1697.453   1353.311  0.000582 580
   7.800   1831.000   1783.238   1353.501  0.000546 581
   7.810   1893.380   1840.580   1353.693  0.000528 582
   7.820   1905.920   1844.229   1353.888  0.000525 583
   7.830   1829.020   1799.593   1354.085  0.000547 584
   7.840   1760.300   1740.924   1354.285  0.000568 585
   7.850   1679.590   1698.135   1354.487  0.000595 586
   7.860   1650.840   1682.359   1354.692  0.000606 587
   7.870   1632.780   1688.823   1354.900  0.000612 588
   7.880   1639.750   1701.535   1355.111  0.000610 589
   7.890   1641.650   1701.147   1355.325  0.000609 590
   7.900   1629.180   1678.496   1355.542  0.000614 591
   7.910   1609.540   1642.604   1355.762  0.000621 592
   7.920   1577.610   1608.170   1355.985  0.000634 593
   7.930   1543.440   1581.140   1356.211  0.000648 594
   7.940   1524.500   1557.819   1356.441  0.000656 595
   7.950   1492.690   1532.152   1356.674  0.000670 596
   7.960   1471.720   1502.506   1356.910  0.000679 597
   7.970   1450.060   1472.569   1357.149  0.000690 598
   7.980   1426.530   1446.378   1357.392  0.000701 599
   7.990   1411.050   1425.628   1357.638  0.000709 600
   8.000   1397.020   1410.073   1357.888  0.000716 601
   8.010   1380.670   1398.701   1358.141  0.000724 602
   8.020   1378.620   1390.446   1358.398  0.000725 603
   8.030   1369.550   1384.440   1358.659  0.000730 604
   8.040   1374.930   1380.037   1358.923  0.000727 605
   8.050   1370.800   1376.799   1359.191  0.000730 606
   8.060   1369.340   1374.404   1359.463  0.000730 607
   8.070   1359.910   1372.631   1359.738  0.000735 608
   8.080   1367.150   1371.326   1360.018  0.000731 609
   8.090   1367.200   1370.378   1360.301  0.000731 610
   8.100   1372.320   1369.710   1360.589  0.000729 611
   8.110   1363.940   1369.265   1360.880  0.000733 612
   8.120   1368.880   1369.002   1361.176  0.000731 613
   8.130   1353.410   1368.892   1361.475  0.000739 614
   8.140   1368.700   1368.914   1361.779  0.000731 615
   8.150   1363.780   1369.052   1362.087  0.000733 616
   8.160   1372.240   1369.298   1362.399  0.000729 617
   8.170   1368.130   1369.646   1362.715  0.000731 618
   8.180   1374.950   1370.096   1363.036  0.000727 619
   8.190   1363.310   1370.649   1363.361  0.000734 620
   8.200   1369.680   1371.311   1363.690  0.000730 621
   8.210   1370.790   1372.092   1364.024  0.000730 622
   8.220   1380.110   1373.007   1364.362  0.000725 623
   8.230   1372.670   1374.076   1364.705  0.000729 624
   8.240   1378.630   1375.324   1365.052  0.000725 625
   8.250   1369.860   1376.789   1365.403  0.000730 626
   8.260   1378.330   1378.525   1365.759  0.000726 627
   8.270   1378.970   1380.575   1366.120  0.000725 628
   8.280   1383.690   1383.030   1366.485  0.000723 629
   8.290   1379.410   1386.002   1366.855  0.000725 630
   8.300   1390.300   1389.639   1367.230  0.000719 631
   8.310   1381.400   1394.146   1367.609  0.000724 632
   8.320   1391.960   1399.808   1367.993  0.000718 633
   8.330   1395.550   1407.028   1368.382  0.000717 634
   8.340   1409.670   1416.381   1368.776  0.000709 635
   8.350   1412.530   1428.704   1369.175  0.000708 636
   8.360   1429.070   1445.229   1369.578  0.000700 637
   8.370   1439.090   1467.797   1369.986  0.000695 638
   8.380   1475.200   1499.174   1370.400  0.000678 639
   8.390   1509.230   1543.510   1370.818  0.000663 640
   8.400   1577.930   1606.901   1371.241  0.000634 641
   8.410   1659.710   1697.720   1371.669  0.000603 642
   8.420   1802.450   1825.602   1372.102  0.000555 643
   8.430   1969.000   1996.120   1372.540  0.000508 644
   8.440   2214.990   2196.918   1372.984  0.000451 645
   8.450   2437.440   2378.847   1373.432  0.000410 646
   8.460   2566.860   2462.468   1373.886  0.000390 647
   8.470   2526.730   2397.684   1374.344  0.000396 648
   8.480   2348.670   2220.797   1374.808  0.000426 649
   8.490   2091.070   2016.077   1375.278  0.000478 650
   8.500   1874.640   1839.979   1375.752  0.000533 651
   8.510   1708.500   1708.119   1376.232  0.000585 652
   8.520   1592.800   1615.264   1376.717  0.000628 653
   8.530   1518.190   1551.248   1377.207  0.000659 654
   8.540   1482.330   1507.131   1377.703  0.000675 655
   8.550   1442.250   1476.460   1378.204  0.000693 656
   8.560   1434.940   1454.869   1378.710  0.000697 657
   8.570   1423.250   1439.476   1379.222  0.000703 658
   8.580   1426.050   1428.380   1379.739  0.000701 659
   8.590   1411.420   1420.321   1380.262  0.000709 660
   8.600   1412.890   1414.454   1380.790  0.000708 661
   8.610   1401.790   1410.206   1381.324  0.000713 662
   8.620   1408.040   1407.185   1381.864  0.000710 663
   8.630   1402.910   1405.126   1382.409  0.000713 664
   8.640   1412.470   1403.847   1382.959  0.000708 665
   8.650   1405.780   1403.236   1383.516  0.000711 666
   8.660   1415.220   1403.227   1384.078  0.000707 667
   8.670   1405.100   1403.802   1384.645  0.000712 668
   8.680   1414.940   1404.983   1385.219  0.000707 669
   8.690   1414.970   1406.840   1385.798  0.000707 670
   8.700   1421.170   1409.499   1386.383  0.000704 671
   8.710   1421.020   1413.159   1386.973  0.000704 672
   8.720   1431.600   1418.111   1387.570  0.000699 673
   8.730   1429.680   1424.779   1388.173  0.000699 674
   8.740   1441.300   1433.744   1388.781  0.000694 675
   8.750   1454.230   1445.772   1389.395  0.000688 676
   8.760   1475.830   1461.767   1390.016  0.000678 677
   8.770   1488.920   1482.544   1390.642  0.000672 678
   8.780   1530.710   1508.231   1391.274  0.000653 679
   8.790   1543.330   1537.144   1391.913  0.000648 680
   8.800   1582.330   1564.567   1392.557  0.000632 681
   8.810   1604.560   1582.971   1393.208  0.000623 682
   8.820   1608.940   1585.719   1393.864  0.000622 683
   8.830   1588.280   1571.647   1394.527  0.000630 684
   8.840   1565.950   1546.754   1395.197  0.000639 685
   8.850   1523.080   1519.164   1395.872  0.000657 686
   8.860   1503.550   1494.460   1396.554  0.000665 687
   8.870   1479.580   1474.841   1397.242  0.000676 688
   8.880   1472.510   1460.371   1397.937  0.000679 689
   8.890   1452.340   1450.269   1398.638  0.000689 690
   8.900   1450.670   1443.630   1399.345  0.000689 691
   8.910   1439.110   1439.713   1400.059  0.000695 692
   8.920   1445.390   1437.964   1400.780  0.000692 693
   8.930   1439.500   1438.073   1401.507  0.000695 694
   8.940   1444.760   1439.902   1402.241  0.000692 695
   8.950   1446.220   1443.490   1402.981  0.000691 696
   8.960   1457.670   1449.059   1403.728  0.000686 697
   8.970   1450.400   1457.046   1404.482  0.000689 698
   8.980   1468.540   1468.177   1405.243  0.000681 699
   8.990   1478.180   1483.586   1406.011  0.000677 700
   9.000   1504.590   1504.999   1406.786  0.000665 701
   9.010   1525.550   1535.018   1407.567  0.000656 702
   9.020   1572.600   1577.465   1408.356  0.000636 703
   9.030   1625.470   1637.682   1409.152  0.000615 704
   9.040   1727.170   1722.235   1409.955  0.000579 705
   9.050   1847.370   1836.646   1410.765  0.000541 706
   9.060   2023.890   1978.432   1411.583  0.000494 707
   9.070   2180.740   2124.828   1412.408  0.000459 708
   9.080   2331.390   2226.706   1413.240  0.000429 709
   9.090   2341.850   2233.786   1414.080  0.000427 710
   9.100   2277.920   2140.672   1414.927  0.000439 711
   9.110   2113.860   1996.513   1415.782  0.000473 712
   9.120   1956.350   1854.586   1416.645  0.000511 713
   9.130   1810.060   1740.583   1417.516  0.000552 714
   9.140   1707.340   1657.607   1418.394  0.000586 715
   9.150   1625.480   1599.620   1419.281  0.000615 716
   9.160   1588.920   1559.460   1420.175  0.000629 717
   9.170   1551.600   1531.758   1421.078  0.000644 718
   9.180   1533.970   1513.107   1421.988  0.000652 719
   9.190   1511.060   1501.328   1422.907  0.000662 720
   9.200   1507.070   1495.005   1423.835  0.000664 721
   9.210   1490.910   1493.337   1424.771  0.000671 722
   9.220   1493.810   1496.078   1425.715  0.000669 723
   9.230   1504.780   1503.565   1426.669  0.000665 724
   9.240   1519.630   1516.634   1427.631  0.000658 725
   9.250   1528.740   1536.682   1428.602  0.000654 726
   9.260   1554.900   1565.345   1429.582  0.000643 727
   9.270   1585.660   1603.542   1430.572  0.000631 728
   9.280   1639.050   1649.230   1431.570  0.000610 729
   9.290   1682.240   1694.224   1432.578  0.000594 730
   9.300   1722.790   1723.872   1433.596  0.000580 731
   9.310   1727.170   1724.923   1434.623  0.000579 732
   9.320   1709.080   1696.931   1435.660  0.000585 733
   9.330   1652.520   1653.730   1436.708  0.000605 734
   9.340   1622.730   1610.465   1437.765  0.000616 735
   9.350   1581.620   1575.233   1438.833  0.000632 736
   9.360   1561.060   1549.800   1439.911  0.000641 737
   9.370   1537.680   1533.018   1441.000  0.000650 738
   9.380   1532.800   1523.134   1442.099  0.000652 739
   9.390   1514.990   1518.669   1443.210  0.000660 740
   9.400   1523.930   1518.646   1444.332  0.000656 741
   9.410   1523.490   1522.597   1445.465  0.000656 742
   9.420   1527.230   1530.539   1446.610  0.000655 743
   9.430   1533.520   1542.961   1447.767  0.000652 744
   9.440   1558.800   1560.860   1448.936  0.000642 745
   9.450   1565.010   1585.960   1450.117  0.000639 746
   9.460   1597.900   1620.941   1451.310  0.000626 747
   9.470   1634.550   1669.839   1452.516  0.000612 748
   9.480   1713.150   1738.528   1453.735  0.000584 749
   9.490   1809.450   1835.021   1454.968  0.000553 750
   9.500   1942.950   1968.722   1456.214  0.000515 751
   9.510   2115.160   2146.425   1457.473  0.000473 752
   9.520   2368.300   2361.549   1458.747  0.000422 753
   9.530   2586.770   2576.992   1460.035  0.000387 754
   9.540   2760.820   2720.375   1461.338  0.000362 755
   9.550   2781.400   2723.772   1462.655  0.000360 756
   9.560   2687.970   2585.810   1463.988  0.000372 757
   9.570   2470.520   2378.143   1465.337  0.000405 758
   9.580   2260.490   2175.432   1466.701  0.000442 759
   9.590   2065.840   2014.319   1468.082  0.000484 760
   9.600   1934.110   1900.585   1469.479  0.000517 761
   9.610   1832.660   1827.442   1470.894  0.000546 762
   9.620   1779.660   1786.388   1472.325  0.000562 763
   9.630   1741.650   1771.123   1473.775  0.000574 764
   9.640   1747.290   1778.353   1475.242  0.000572 765
   9.650   1769.480   1807.742   1476.729  0.000565 766
   9.660   1824.360   1861.826   1478.234  0.000548 767
   9.670   1897.290   1946.046   1479.758  0.000527 768
   9.680   2020.490   2068.529   1481.302  0.000495 769
   9.690   2184.780   2238.575   1482.867  0.000458 770
   9.700   2424.440   2461.686   1484.452  0.000412 771
   9.710   2703.370   2729.056   1486.058  0.000370 772
   9.720   3010.200   3005.781   1487.686  0.000332 773
   9.730   3263.880   3236.949   1489.335  0.000306 774
   9.740   3465.250   3385.576   1491.007  0.000289 775
   9.750   3525.750   3466.367   1492.702  0.000284 776
   9.760   3565.820   3519.592   1494.419  0.000280 777
   9.770   3566.800   3546.248   1496.160  0.000280 778
   9.780   3518.030   3498.713   1497.926  0.000284 779
   9.790   3367.740   3334.295   1499.715  0.000297 780
   9.800   3109.940   3068.311   1501.529  0.000322 781
   9.810   2772.560   2765.347   1503.368  0.000361 782
   9.820   2470.670   2484.843   1505.231  0.000405 783
   9.830   2212.440   2255.187   1507.121  0.000452 784
   9.840   2030.270   2079.621   1509.035  0.000493 785
   9.850   1891.950   1949.971   1510.976  0.000529 786
   9.860   1817.190   1855.633   1512.942  0.000550 787
   9.870   1747.510   1787.268   1514.914  0.000572 788
   9.880   1723.300   1737.759   1516.931  0.000580 789
   9.890   1692.130   1701.908   1518.973  0.000591 790
   9.900   1676.840   1676.061   1521.041  0.000596 791
   9.910   1660.020   1657.679   1523.133  0.000602 792
   9.920   1660.720   1645.007   1525.249  0.000602 793
   9.930   1643.790   1636.854   1527.388  0.000608 794
   9.940   1645.880   1632.437   1529.550  0.000608 795
   9.950   1645.380   1631.285   1531.733  0.000608 796
   9.960   1653.420   1633.186   1533.936  0.000605 797
   9.970   1649.050   1638.140   1536.158  0.000606 798
   9.980   1664.820   1646.320   1538.397  0.000601 799
   9.990   1664.270   1657.971   1540.652  0.000601 800
  10.000   1687.480   1673.178   1542.919  0.000593 801
  10.010   1700.600   1691.577   1545.198  0.000588 802
  10.020   1725.210   1712.370   1547.485  0.000580 803
  10.030   1737.050   1735.368   1549.777  0.000576 804
  10.040   1769.190   1762.209   1552.073  0.000565 805
  10.050   1776.540   1796.530   1554.367  0.000563 806
  10.060   1828.830   1842.776   1556.657  0.000547 807
  10.070   1885.600   1905.832   1558.939  0.000530 808
  10.080   1982.840   1991.584   1561.209  0.000504 809
  10.090   2090.520   2107.633   1563.463  0.000478 810
  10.100   2260.190   2263.450   1565.696  0.000442 811
  10.110   2465.520   2469.100   1567.904  0.000406 812
  10.120   2757.670   2730.812   1570.083  0.000363 813
  10.130   3078.230   3041.262   1572.227  0.000325 814
  10.140   3430.810   3365.707   1574.332  0.000291 815
  10.150   3705.520   3636.403   1576.394  0.000270 816
  10.160   3881.370   3777.949   1578.408  0.000258 817
  10.170   3851.720   3758.902   1580.370  0.000260 818
  10.180   3755.620   3625.395   1582.276  0.000266 819
  10.190   3563.290   3467.725   1584.121  0.000281 820
  10.200   3432.190   3360.089   1585.903  0.000291 821
  10.210   3375.920   3334.205   1587.619  0.000296 822
  10.220   3410.860   3380.527   1589.266  0.000293 823
  10.230   3444.790   3456.849   1590.843  0.000290 824
  10.240   3529.500   3503.981   1592.346  0.000283 825
  10.250   3519.770   3475.040   1593.777  0.000284 826
  10.260   3428.300   3363.341   1595.134  0.000292 827
  10.270   3260.180   3205.699   1596.418  0.000307 828
  10.280   3083.230   3046.356   1597.630  0.000324 829
  10.290   2890.150   2904.179   1598.771  0.000346 830
  10.300   2746.380   2768.081   1599.843  0.000364 831
  10.310   2590.820   2618.524   1600.849  0.000386 832
  10.320   2443.830   2452.552   1601.791  0.000409 833
  10.330   2274.140   2287.462   1602.674  0.000440 834
  10.340   2144.100   2141.910   1603.500  0.000466 835
  10.350   2008.400   2024.261   1604.275  0.000498 836
  10.360   1932.980   1933.779   1605.002  0.000517 837
  10.370   1863.680   1865.727   1605.685  0.000537 838
  10.380   1814.590   1814.817   1606.329  0.000551 839
  10.390   1779.890   1776.578   1606.940  0.000562 840
  10.400   1761.240   1747.610   1607.521  0.000568 841
  10.410   1728.410   1725.457   1608.077  0.000579 842
  10.420   1726.420   1708.344   1608.613  0.000579 843
  10.430   1708.690   1695.008   1609.132  0.000585 844
  10.440   1712.630   1684.562   1609.640  0.000584 845
  10.450   1698.620   1676.365   1610.140  0.000589 846
  10.460   1690.300   1669.956   1610.636  0.000592 847
  10.470   1678.970   1665.005   1611.132  0.000596 848
  10.480   1680.070   1661.286   1611.630  0.000595 849
  10.490   1672.870   1658.650   1612.134  0.000598 850
  10.500   1676.210   1657.011   1612.647  0.000597 851
  10.510   1669.980   1656.379   1613.171  0.000599 852
  10.520   1677.260   1656.805   1613.709  0.000596 853
  10.530   1659.760   1658.424   1614.262  0.000602 854
  10.540   1669.900   1661.438   1614.833  0.000599 855
  10.550   1674.970   1666.068   1615.423  0.000597 856
  10.560   1682.710   1672.403   1616.033  0.000594 857
  10.570   1678.070   1680.079   1616.665  0.000596 858
  10.580   1682.640   1687.865   1617.320  0.000594 859
  10.590   1674.540   1693.654   1617.998  0.000597 860
  10.600   1685.770   1695.514   1618.701  0.000593 861
  10.610   1685.290   1693.213   1619.429  0.000593 862
  10.620   1691.730   1688.569   1620.182  0.000591 863
  10.630   1683.790   1683.895   1620.961  0.000594 864
  10.640   1690.830   1680.646   1621.765  0.000591 865
  10.650   1682.350   1679.340   1622.596  0.000594 866
  10.660   1693.280   1679.984   1623.453  0.000591 867
  10.670   1690.050   1682.437   1624.336  0.000592 868
  10.680   1702.870   1686.596   1625.245  0.000587 869
  10.690   1701.290   1692.417   1626.180  0.000588 870
  10.700   1712.460   1700.025   1627.140  0.000584 871
  10.710   1707.410   1709.640   1628.126  0.000586 872
  10.720   1729.230   1721.603   1629.136  0.000578 873
  10.730   1741.940   1736.444   1630.172  0.000574 874
  10.740   1769.700   1754.892   1631.232  0.000565 875
  10.750   1776.950   1777.982   1632.315  0.000563 876
  10.760   1806.910   1807.116   1633.423  0.000553 877
  10.770   1830.390   1844.254   1634.554  0.000546 878
  10.780   1881.200   1892.137   1635.707  0.000532 879
  10.790   1926.950   1954.623   1636.883  0.000519 880
  10.800   2021.590   2037.155   1638.081  0.000495 881
  10.810   2117.620   2147.399   1639.301  0.000472 882
  10.820   2293.510   2295.984   1640.541  0.000436 883
  10.830   2466.490   2497.119   1641.803  0.000405 884
  10.840   2784.390   2768.246   1643.084  0.000359 885
  10.850   3151.070   3126.734   1644.386  0.000317 886
  10.860   3632.210   3579.817   1645.707  0.000275 887
  10.870   4152.900   4103.839   1647.047  0.000241 888
  10.880   4691.100   4618.061   1648.406  0.000213 889
  10.890   5002.270   4982.850   1649.784  0.000200 890
  10.900   5145.870   5061.982   1651.179  0.000194 891
  10.910   4953.460   4819.396   1652.592  0.000202 892
  10.920   4551.720   4355.336   1654.022  0.000220 893
  10.930   3994.070   3822.691   1655.468  0.000250 894
  10.940   3458.900   3333.561   1656.932  0.000289 895
  10.950   2995.280   2935.173   1658.411  0.000334 896
  10.960   2646.600   2630.960   1659.906  0.000378 897
  10.970   2381.470   2406.000   1661.417  0.000420 898
  10.980   2208.510   2241.898   1662.943  0.000453 899
  10.990   2074.870   2122.666   1664.484  0.000482 900
  11.000   1993.830   2036.052   1666.040  0.000502 901
  11.010   1924.390   1973.218   1667.610  0.000520 902
  11.020   1897.300   1927.930   1669.193  0.000527 903
  11.030   1860.990   1895.886   1670.791  0.000537 904
  11.040   1850.930   1874.175   1672.402  0.000540 905
  11.050   1828.340   1860.901   1674.027  0.000547 906
  11.060   1830.010   1854.941   1675.664  0.000546 907
  11.070   1822.660   1855.812   1677.315  0.000549 908
  11.080   1833.670   1863.632   1678.977  0.000545 909
  11.090   1843.410   1879.109   1680.653  0.000542 910
  11.100   1877.770   1903.733   1682.340  0.000533 911
  11.110   1894.520   1939.974   1684.039  0.000528 912
  11.120   1947.810   1991.701   1685.750  0.000513 913
  11.130   1997.700   2064.830   1687.472  0.000501 914
  11.140   2111.580   2168.285   1689.206  0.000474 915
  11.150   2251.260   2315.301   1690.951  0.000444 916
  11.160   2495.510   2524.805   1692.707  0.000401 917
  11.170   2807.590   2821.569   1694.474  0.000356 918
  11.180   3247.740   3231.223   1696.251  0.000308 919
  11.190   3740.280   3761.461   1698.039  0.000267 920
  11.200   4346.410   4360.379   1699.837  0.000230 921
  11.210   4828.420   4871.708   1701.645  0.000207 922
  11.220   5072.840   5074.514   1703.463  0.000197 923
  11.230   4893.520   4854.515   1705.291  0.000204 924
  11.240   4428.050   4330.261   1707.129  0.000226 925
  11.250   3797.810   3729.808   1708.976  0.000263 926
  11.260   3244.160   3206.806   1710.832  0.000308 927
  11.270   2797.000   2808.038   1712.698  0.000358 928
  11.280   2497.470   2522.542   1714.573  0.000400 929
  11.290   2268.700   2323.421   1716.458  0.000441 930
  11.300   2138.710   2185.703   1718.351  0.000468 931
  11.310   2036.730   2090.679   1720.253  0.000491 932
  11.320   1982.890   2025.447   1722.163  0.000504 933
  11.330   1941.910   1981.437   1724.082  0.000515 934
  11.340   1922.450   1953.092   1726.010  0.000520 935
  11.350   1899.760   1936.915   1727.946  0.000526 936
  11.360   1902.140   1930.837   1729.890  0.000526 937
  11.370   1895.380   1933.790   1731.842  0.000528 938
  11.380   1918.760   1945.363   1733.802  0.000521 939
  11.390   1925.580   1965.450   1735.771  0.000519 940
  11.400   1961.580   1993.851   1737.747  0.000510 941
  11.410   1988.310   2030.065   1739.731  0.000503 942
  11.420   2040.360   2073.826   1741.722  0.000490 943
  11.430   2074.740   2126.620   1743.721  0.000482 944
  11.440   2159.790   2193.175   1745.728  0.000463 945
  11.450   2243.380   2281.563   1747.741  0.000446 946
  11.460   2378.400   2401.405   1749.763  0.000420 947
  11.470   2540.460   2561.896   1751.791  0.000394 948
  11.480   2762.280   2769.348   1753.826  0.000362 949
  11.490   3000.500   3023.339   1755.869  0.000333 950
  11.500   3324.740   3311.340   1757.918  0.000301 951
  11.510   3624.520   3602.913   1759.974  0.000276 952
  11.520   3902.470   3845.075   1762.037  0.000256 953
  11.530   4018.370   3969.795   1764.107  0.000249 954
  11.540   4012.870   3928.529   1766.183  0.000249 955
  11.550   3787.310   3734.956   1768.266  0.000264 956
  11.560   3526.420   3467.965   1770.355  0.000284 957
  11.570   3243.350   3215.063   1772.451  0.000308 958
  11.580   3063.930   3030.230   1774.553  0.000326 959
  11.590   2951.360   2932.111   1776.661  0.000339 960
  11.600   2951.200   2916.862   1778.775  0.000339 961
  11.610   2972.200   2964.274   1780.895  0.000336 962
  11.620   3072.370   3035.778   1783.022  0.000325 963
  11.630   3101.620   3077.321   1785.154  0.000322 964
  11.640   3090.320   3041.821   1787.292  0.000324 965
  11.650   2950.220   2919.388   1789.435  0.000339 966
  11.660   2783.510   2743.830   1791.585  0.000359 967
  11.670   2575.530   2561.003   1793.740  0.000388 968
  11.680   2426.140   2401.082   1795.900  0.000412 969
  11.690   2295.530   2274.486   1798.066  0.000436 970
  11.700   2207.370   2179.808   1800.237  0.000453 971
  11.710   2125.630   2111.372   1802.414  0.000470 972
  11.720   2083.130   2063.185   1804.596  0.000480 973
  11.730   2029.080   2030.349   1806.783  0.000493 974
  11.740   2022.700   2009.275   1808.975  0.000494 975
  11.750   2013.780   1997.531   1811.172  0.000497 976
  11.760   2009.340   1993.600   1813.374  0.000498 977
  11.770   2004.470   1996.708   1815.580  0.000499 978
  11.780   2016.860   2006.707   1817.792  0.000496 979
  11.790   2016.060   2024.036   1820.008  0.000496 980
  11.800   2062.430   2049.753   1822.229  0.000485 981
  11.810   2087.130   2085.618   1824.454  0.000479 982
  11.820   2138.160   2134.233   1826.684  0.000468 983
  11.830   2193.890   2199.183   1828.918  0.000456 984
  11.840   2280.130   2285.094   1831.157  0.000439 985
  11.850   2381.380   2397.279   1833.399  0.000420 986
  11.860   2533.730   2540.613   1835.646  0.000395 987
  11.870   2712.080   2716.662   1837.897  0.000369 988
  11.880   2939.860   2918.789   1840.152  0.000340 989
  11.890   3145.840   3126.994   1842.411  0.000318 990
  11.900   3360.960   3308.879   1844.673  0.000298 991
  11.910   3480.310   3434.097   1846.940  0.000287 992
  11.920   3575.260   3495.916   1849.210  0.000280 993
  11.930   3591.980   3521.905   1851.483  0.000278 994
  11.940   3604.500   3556.063   1853.761  0.000277 995
  11.950   3632.850   3628.246   1856.041  0.000275 996
  11.960   3725.990   3735.924   1858.325  0.000268 997
  11.970   3791.620   3848.318   1860.612  0.000264 998
  11.980   3889.400   3931.913   1862.902  0.000257 999
  11.990   3925.830   3975.049   1865.196  0.000255 1000
  12.000   3966.170   3985.128   1867.492  0.000252 1001
  12.010   3920.210   3964.495   1869.791  0.000255 1002
  12.020   3879.700   3903.071   1872.094  0.000258 1003
  12.030   3736.410   3788.343   1874.398  0.000268 1004
  12.040   3597.710   3615.416   1876.706  0.000278 1005
  12.050   3370.850   3393.841   1879.016  0.000297 1006
  12.060   3141.210   3150.039   1881.329  0.000318 1007
  12.070   2885.020   2914.512   1883.644  0.000347 1008
  12.080   2680.810   2708.370   1885.961  0.000373 1009
  12.090   2471.870   2539.746   1888.280  0.000405 1010
  12.100   2350.110   2407.520   1890.602  0.000426 1011
  12.110   2239.980   2306.385   1892.925  0.000446 1012
  12.120   2171.570   2230.147   1895.251  0.000460 1013
  12.130   2114.680   2173.263   1897.578  0.000473 1014
  12.140   2098.590   2131.354   1899.907  0.000477 1015
  12.150   2044.080   2101.158   1902.238  0.000489 1016
  12.160   2046.130   2080.414   1904.570  0.000489 1017
  12.170   2031.260   2067.691   1906.904  0.000492 1018
  12.180   2030.850   2062.274   1909.239  0.000492 1019
  12.190   2031.730   2064.026   1911.576  0.000492 1020
  12.200   2051.190   2073.344   1913.913  0.000488 1021
  12.210   2049.040   2090.887   1916.252  0.000488 1022
  12.220   2090.810   2117.013   1918.591  0.000478 1023
  12.230   2113.620   2150.596   1920.932  0.000473 1024
  12.240   2164.690   2187.253   1923.273  0.000462 1025
  12.250   2187.080   2218.234   1925.615  0.000457 1026
  12.260   2207.340   2232.713   1927.957  0.000453 1027
  12.270   2186.920   2224.102   1930.300  0.000457 1028
  12.280   2168.940   2195.219   1932.643  0.000461 1029
  12.290   2130.560   2156.213   1934.987  0.000469 1030
  12.300   2105.230   2117.105   1937.330  0.000475 1031
  12.310   2067.970   2083.628   1939.674  0.000484 1032
  12.320   2052.700   2057.499   1942.018  0.000487 1033
  12.330   2020.350   2038.241   1944.361  0.000495 1034
  12.340   2023.860   2024.633   1946.704  0.000494 1035
  12.350   2007.860   2015.430   1949.047  0.000498 1036
  12.360   2010.210   2009.615   1951.389  0.000497 1037
  12.370   2000.600   2006.465   1953.731  0.000500 1038
  12.380   2004.850   2005.478   1956.072  0.000499 1039
  12.390   1982.730   2006.363   1958.412  0.000504 1040
  12.400   2001.170   2009.003   1960.751  0.000500 1041
  12.410   2007.820   2013.438   1963.089  0.000498 1042
  12.420   2024.460   2019.873   1965.426  0.000494 1043
  12.430   2021.480   2028.706   1967.762  0.000495 1044
  12.440   2044.220   2040.571   1970.096  0.000489 1045
  12.450   2039.940   2056.411   1972.429  0.000490 1046
  12.460   2072.660   2077.599   1974.760  0.000482 1047
  12.470   2091.960   2106.017   1977.090  0.000478 1048
  12.480   2142.930   2144.056   1979.418  0.000467 1049
  12.490   2171.010   2194.303   1981.743  0.000461 1050
  12.500   2244.800   2258.543   1984.067  0.000445 1051
  12.510   2290.470   2335.220   1986.389  0.000437 1052
  12.520   2379.610   2415.678   1988.708  0.000420 1053
  12.530   2432.100   2481.798   1991.025  0.000411 1054
  12.540   2470.250   2511.451   1993.339  0.000405 1055
  12.550   2441.680   2492.638   1995.651  0.000410 1056
  12.560   2419.180   2433.871   1997.960  0.000413 1057
  12.570   2321.270   2357.297   2000.266  0.000431 1058
  12.580   2272.550   2282.640   2002.569  0.000440 1059
  12.590   2206.910   2219.983   2004.869  0.000453 1060
  12.600   2163.450   2171.539   2007.166  0.000462 1061
  12.610   2122.690   2135.698   2009.459  0.000471 1062
  12.620   2109.060   2109.785   2011.750  0.000474 1063
  12.630   2077.070   2091.254   2014.036  0.000481 1064
  12.640   2076.970   2078.115   2016.319  0.000481 1065
  12.650   2066.060   2068.861   2018.598  0.000484 1066
  12.660   2068.380   2062.431   2020.873  0.000483 1067
  12.670   2061.860   2058.066   2023.145  0.000485 1068
  12.680   2055.990   2055.228   2025.412  0.000486 1069
  12.690   2042.170   2053.534   2027.675  0.000490 1070
  12.700   2057.210   2052.710   2029.934  0.000486 1071
  12.710   2056.420   2052.559   2032.188  0.000486 1072
  12.720   2054.020   2052.938   2034.437  0.000487 1073
  12.730   2052.160   2053.745   2036.682  0.000487 1074
  12.740   2061.630   2054.908   2038.923  0.000485 1075
  12.750   2047.040   2056.378   2041.158  0.000489 1076
  12.760   2070.910   2058.125   2043.389  0.000483 1077
  12.770   2062.690   2060.135   2045.614  0.000485 1078
  12.780   2072.950   2062.413   2047.835  0.000482 1079
  12.790   2070.090   2064.982   2050.050  0.000483 1080
  12.800   2076.320   2067.885   2052.260  0.000482 1081
  12.810   2064.710   2071.192   2054.464  0.000484 1082
  12.820   2081.920   2075.004   2056.663  0.000480 1083
  12.830   2072.290   2079.454   2058.856  0.000483 1084
  12.840   2089.610   2084.697   2061.044  0.000479 1085
  12.850   2088.330   2090.876   2063.226  0.000479 1086
  12.860   2107.600   2097.970   2065.402  0.000474 1087
  12.870   2097.600   2105.672   2067.572  0.000477 1088
  12.880   2117.320   2113.151   2069.736  0.000472 1089
  12.890   2122.290   2119.145   2071.895  0.000471 1090
  12.900   2135.160   2122.569   2074.047  0.000468 1091
  12.910   2126.470   2123.285   2076.193  0.000470 1092
  12.920   2133.970   2122.300   2078.333  0.000469 1093
  12.930   2117.080   2121.019   2080.467  0.000472 1094
  12.940   2129.670   2120.506   2082.594  0.000470 1095
  12.950   2124.240   2121.304   2084.715  0.000471 1096
  12.960   2129.580   2123.618   2086.830  0.000470 1097
  12.970   2124.060   2127.546   2088.938  0.000471 1098
  12.980   2132.720   2133.222   2091.041  0.000469 1099
  12.990   2123.650   2140.902   2093.136  0.000471 1100
  13.000   2148.860   2151.004   2095.226  0.000465 1101
  13.010   2150.900   2164.098   2097.309  0.000465 1102
  13.020   2175.280   2180.828   2099.386  0.000460 1103
  13.030   2185.000   2201.628   2101.457  0.000458 1104
  13.040   2216.010   2226.121   2103.521  0.000451 1105
  13.050   2215.750   2252.183   2105.580  0.000451 1106
  13.060   2249.010   2275.322   2107.632  0.000445 1107
  13.070   2258.020   2289.849   2109.678  0.000443 1108
  13.080   2273.790   2292.131   2111.719  0.000440 1109
  13.090   2268.010   2283.569   2113.754  0.000441 1110
  13.100   2264.230   2269.675   2115.783  0.000442 1111
  13.110   2237.090   2256.191   2117.806  0.000447 1112
  13.120   2242.250   2246.646   2119.825  0.000446 1113
  13.130   2233.440   2242.458   2121.838  0.000448 1114
  13.140   2250.280   2243.856   2123.846  0.000444 1115
  13.150   2246.850   2250.752   2125.850  0.000445 1116
  13.160   2262.500   2263.225   2127.849  0.000442 1117
  13.170   2262.740   2281.696   2129.845  0.000442 1118
  13.180   2286.900   2307.095   2131.836  0.000437 1119
  13.190   2317.670   2340.980   2133.824  0.000431 1120
  13.200   2372.160   2385.735   2135.808  0.000422 1121
  13.210   2423.990   2444.845   2137.790  0.000413 1122
  13.220   2502.910   2523.246   2139.770  0.000400 1123
  13.230   2596.700   2627.626   2141.748  0.000385 1124
  13.240   2759.600   2766.388   2143.724  0.000362 1125
  13.250   2953.600   2948.575   2145.700  0.000339 1126
  13.260   3200.210   3180.291   2147.675  0.000312 1127
  13.270   3456.250   3456.858   2149.651  0.000289 1128
  13.280   3749.100   3750.726   2151.627  0.000267 1129
  13.290   3941.280   4003.874   2153.605  0.000254 1130
  13.300   4090.990   4143.567   2155.586  0.000244 1131
  13.310   4076.480   4125.988   2157.569  0.000245 1132
  13.320   3978.860   3971.349   2159.556  0.000251 1133
  13.330   3775.440   3748.593   2161.548  0.000265 1134
  13.340   3578.680   3525.531   2163.546  0.000279 1135
  13.350   3370.890   3342.829   2165.549  0.000297 1136
  13.360   3255.900   3217.699   2167.560  0.000307 1137
  13.370   3180.520   3156.095   2169.579  0.000314 1138
  13.380   3194.470   3160.996   2171.607  0.000313 1139
  13.390   3270.320   3236.472   2173.645  0.000306 1140
  13.400   3443.750   3388.340   2175.693  0.000290 1141
  13.410   3648.140   3619.882   2177.753  0.000274 1142
  13.420   3949.970   3920.512   2179.825  0.000253 1143
  13.430   4244.230   4249.737   2181.910  0.000236 1144
  13.440   4533.890   4534.721   2184.007  0.000221 1145
  13.450   4664.660   4704.544   2186.118  0.000214 1146
  13.460   4724.760   4737.755   2188.243  0.000212 1147
  13.470   4643.410   4663.063   2190.380  0.000215 1148
  13.480   4540.470   4511.972   2192.530  0.000220 1149
  13.490   4343.530   4299.134   2194.691  0.000230 1150
  13.500   4122.100   4038.160   2196.861  0.000243 1151
  13.510   3830.770   3754.729   2199.040  0.000261 1152
  13.520   3547.970   3478.749   2201.223  0.000282 1153
  13.530   3259.620   3232.596   2203.407  0.000307 1154
  13.540   3059.520   3026.476   2205.588  0.000327 1155
  13.550   2875.200   2860.830   2207.760  0.000348 1156
  13.560   2738.010   2730.877   2209.918  0.000365 1157
  13.570   2626.860   2630.146   2212.054  0.000381 1158
  13.580   2555.500   2552.388   2214.160  0.000391 1159
  13.590   2484.590   2492.302   2216.226  0.000402 1160
  13.600   2454.740   2445.698   2218.244  0.000407 1161
  13.610   2416.490   2409.356   2220.201  0.000414 1162
  13.620   2398.730   2380.827   2222.088  0.000417 1163
  13.630   2372.540   2358.276   2223.892  0.000421 1164
  13.640   2365.230   2340.321   2225.602  0.000423 1165
  13.650   2336.170   2325.922   2227.207  0.000428 1166
  13.660   2335.990   2314.289   2228.697  0.000428 1167
  13.670   2326.560   2304.818   2230.063  0.000430 1168
  13.680   2325.210   2297.044   2231.297  0.000430 1169
  13.690   2306.930   2290.622   2232.394  0.000433 1170
  13.700   2304.080   2285.252   2233.350  0.000434 1171
  13.710   2283.980   2280.729   2234.163  0.000438 1172
  13.720   2293.820   2276.886   2234.836  0.000436 1173
  13.730   2282.840   2273.582   2235.371  0.000438 1174
  13.740   2291.130   2270.735   2235.773  0.000436 1175
  13.750   2281.940   2268.260   2236.051  0.000438 1176
  13.760   2288.540   2266.098   2236.212  0.000437 1177
  13.770   2265.670   2264.206   2236.268  0.000441 1178
  13.780   2278.370   2262.556   2236.228  0.000439 1179
  13.790   2271.330   2261.128   2236.104  0.000440 1180
  13.800   2286.570   2259.923   2235.907  0.000437 1181
  13.810   2267.050   2258.918   2235.649  0.000441 1182
  13.820   2273.530   2258.129   2235.339  0.000440 1183
  13.830   2250.280   2257.580   2234.988  0.000444 1184
  13.840   2276.730   2257.267   2234.605  0.000439 1185
  13.850   2266.700   2257.227   2234.197  0.000441 1186
  13.860   2273.030   2257.488   2233.771  0.000440 1187
  13.870   2267.030   2258.092   2233.334  0.000441 1188
  13.880   2283.130   2259.098   2232.891  0.000438 1189
  13.890   2265.330   2260.598   2232.445  0.000441 1190
  13.900   2273.180   2262.725   2232.001  0.000440 1191
  13.910   2267.970   2265.659   2231.560  0.000441 1192
  13.920   2292.330   2269.635   2231.126  0.000436 1193
  13.930   2284.130   2274.949   2230.698  0.000438 1194
  13.940   2296.180   2281.963   2230.279  0.000436 1195
  13.950   2289.560   2291.095   2229.868  0.000437 1196
  13.960   2312.520   2302.774   2229.467  0.000432 1197
  13.970   2328.440   2317.342   2229.073  0.000429 1198
  13.980   2363.680   2334.886   2228.688  0.000423 1199
  13.990   2372.580   2355.019   2228.311  0.000421 1200
  14.000   2406.250   2376.554   2227.940  0.000416 1201
  14.010   2404.530   2397.267   2227.575  0.000416 1202
  14.020   2439.170   2414.081   2227.215  0.000410 1203
  14.030   2443.680   2424.416   2226.860  0.000409 1204
  14.040   2457.460   2427.554   2226.507  0.000407 1205
  14.050   2443.540   2425.440   2226.157  0.000409 1206
  14.060   2452.270   2421.696   2225.807  0.000408 1207
  14.070   2427.680   2420.180   2225.457  0.000412 1208
  14.080   2447.770   2424.288   2225.106  0.000409 1209
  14.090   2450.620   2436.679   2224.753  0.000408 1210
  14.100   2494.610   2459.348   2224.398  0.000401 1211
  14.110   2521.610   2493.726   2224.038  0.000397 1212
  14.120   2575.800   2540.374   2223.673  0.000388 1213
  14.130   2612.980   2598.295   2223.302  0.000383 1214
  14.140   2700.560   2663.698   2222.925  0.000370 1215
  14.150   2759.360   2729.200   2222.541  0.000362 1216
  14.160   2821.870   2784.726   2222.149  0.000354 1217
  14.170   2844.290   2820.969   2221.748  0.000352 1218
  14.180   2862.050   2833.216   2221.337  0.000349 1219
  14.190   2819.790   2822.522   2220.917  0.000355 1220
  14.200   2797.200   2792.554   2220.486  0.000358 1221
  14.210   2746.020   2746.334   2220.043  0.000364 1222
  14.220   2697.980   2686.915   2219.589  0.000371 1223
  14.230   2613.760   2619.548   2219.123  0.000383 1224
  14.240   2558.580   2551.432   2218.644  0.000391 1225
  14.250   2476.660   2488.799   2218.152  0.000404 1226
  14.260   2438.690   2435.121   2217.647  0.000410 1227
  14.270   2387.590   2391.204   2217.128  0.000419 1228
  14.280   2362.160   2356.226   2216.594  0.000423 1229
  14.290   2310.940   2328.729   2216.046  0.000433 1230
  14.300   2299.910   2307.163   2215.483  0.000435 1231
  14.310   2267.880   2290.201   2214.906  0.000441 1232
  14.320   2275.140   2276.766   2214.312  0.000440 1233
  14.330   2257.970   2266.024   2213.703  0.000443 1234
  14.340   2258.710   2257.342   2213.079  0.000443 1235
  14.350   2246.410   2250.244   2212.438  0.000445 1236
  14.360   2244.080   2244.373   2211.781  0.000446 1237
  14.370   2221.880   2239.459   2211.108  0.000450 1238
  14.380   2231.190   2235.299   2210.418  0.000448 1239
  14.390   2217.370   2231.727   2209.711  0.000451 1240
  14.400   2233.340   2228.645   2208.988  0.000448 1241
  14.410   2223.360   2225.950   2208.247  0.000450 1242
  14.420   2215.400   2223.573   2207.490  0.000451 1243
  14.430   2208.610   2221.458   2206.715  0.000453 1244
  14.440   2223.180   2219.554   2205.924  0.000450 1245
  14.450   2212.870   2217.847   2205.115  0.000452 1246
  14.460   2222.630   2216.303   2204.288  0.000450 1247
  14.470   2203.910   2214.905   2203.444  0.000454 1248
  14.480   2210.160   2213.639   2202.583  0.000452 1249
  14.490   2192.150   2212.500   2201.704  0.000456 1250
  14.500   2207.610   2211.486   2200.808  0.000453 1251
  14.510   2208.020   2210.599   2199.894  0.000453 1252
  14.520   2217.710   2209.856   2198.963  0.000451 1253
  14.530   2203.710   2209.246   2198.014  0.000454 1254
  14.540   2209.860   2208.818   2197.047  0.000453 1255
  14.550   2193.170   2208.586   2196.063  0.000456 1256
  14.560   2203.860   2208.612   2195.062  0.000454 1257
  14.570   2193.180   2208.949   2194.043  0.000456 1258
  14.580   2209.270   2209.678   2193.006  0.000453 1259
  14.590   2204.190   2210.912   2191.952  0.000454 1260
  14.600   2221.380   2212.801   2190.881  0.000450 1261
  14.610   2199.180   2215.562   2189.792  0.000455 1262
  14.620   2215.720   2219.457   2188.686  0.000451 1263
  14.630   2221.570   2224.837   2187.563  0.000450 1264
  14.640   2232.360   2232.156   2186.423  0.000448 1265
  14.650   2238.830   2241.962   2185.265  0.000447 1266
  14.660   2258.410   2254.763   2184.091  0.000443 1267
  14.670   2258.310   2270.845   2182.899  0.000443 1268
  14.680   2292.890   2289.864   2181.690  0.000436 1269
  14.690   2301.650   2310.352   2180.465  0.000434 1270
  14.700   2327.020   2329.645   2179.223  0.000430 1271
  14.710   2337.120   2344.745   2177.964  0.000428 1272
  14.720   2356.740   2354.205   2176.688  0.000424 1273
  14.730   2341.630   2359.267   2175.396  0.000427 1274
  14.740   2367.100   2362.924   2174.088  0.000422 1275
  14.750   2368.970   2367.118   2172.763  0.000422 1276
  14.760   2381.310   2370.817   2171.422  0.000420 1277
  14.770   2360.650   2370.295   2170.065  0.000424 1278
  14.780   2361.460   2361.634   2168.692  0.000423 1279
  14.790   2320.100   2343.672   2167.303  0.000431 1280
  14.800   2314.570   2319.044   2165.898  0.000432 1281
  14.810   2276.400   2292.193   2164.477  0.000439 1282
  14.820   2267.220   2266.843   2163.041  0.000441 1283
  14.830   2238.840   2244.965   2161.589  0.000447 1284
  14.840   2228.150   2227.046   2160.122  0.000449 1285
  14.850   2196.500   2212.765   2158.640  0.000455 1286
  14.860   2198.380   2201.506   2157.142  0.000455 1287
  14.870   2178.080   2192.639   2155.630  0.000459 1288
  14.880   2185.280   2185.619   2154.102  0.000458 1289
  14.890   2166.670   2180.045   2152.560  0.000462 1290
  14.900   2160.060   2175.608   2151.004  0.000463 1291
  14.910   2148.800   2172.080   2149.432  0.000465 1292
  14.920   2165.460   2169.305   2147.847  0.000462 1293
  14.930   2154.210   2167.206   2146.247  0.000464 1294
  14.940   2154.240   2165.746   2144.633  0.000464 1295
  14.950   2154.930   2164.937   2143.005  0.000464 1296
  14.960   2157.610   2164.840   2141.363  0.000463 1297
  14.970   2135.840   2165.564   2139.707  0.000468 1298
  14.980   2147.250   2167.326   2138.081  0.000466 1299
  14.990   2146.000   2170.279   2136.401  0.000466 1300
  15.000   2165.900   2174.767   2134.707  0.000462 1301
  15.010   2159.640   2181.133   2133.000  0.000463 1302
  15.020   2174.930   2189.683   2131.281  0.000460 1303
  15.030   2176.160   2200.470   2129.548  0.000460 1304
  15.040   2200.090   2213.038   2127.803  0.000455 1305
  15.050   2197.680   2226.064   2126.046  0.000455 1306
  15.060   2220.580   2237.365   2124.277  0.000450 1307
  15.070   2215.210   2244.609   2122.496  0.000451 1308
  15.080   2237.450   2246.648   2120.702  0.000447 1309
  15.090   2201.780   2244.270   2118.897  0.000454 1310
  15.100   2216.280   2239.582   2117.081  0.000451 1311
  15.110   2212.390   2234.496   2115.254  0.000452 1312
  15.120   2216.500   2229.870   2113.415  0.000451 1313
  15.130   2203.630   2225.676   2111.565  0.000454 1314
  15.140   2206.710   2221.717   2109.705  0.000453 1315
  15.150   2184.840   2218.235   2107.835  0.000458 1316
  15.160   2193.400   2216.108   2105.955  0.000456 1317
  15.170   2200.130   2216.596   2104.065  0.000455 1318
  15.180   2220.580   2221.076   2102.166  0.000450 1319
  15.190   2226.770   2230.767   2100.257  0.000449 1320
  15.200   2252.640   2246.693   2098.341  0.000444 1321
  15.210   2254.400   2269.500   2096.416  0.000444 1322
  15.220   2300.350   2298.967   2094.484  0.000435 1323
  15.230   2321.960   2333.350   2092.546  0.000431 1324
  15.240   2366.690   2368.405   2090.603  0.000423 1325
  15.250   2381.610   2397.181   2088.655  0.000420 1326
  15.260   2394.130   2411.687   2086.705  0.000418 1327
  15.270   2358.770   2406.547   2084.755  0.000424 1328
  15.280   2351.160   2382.160   2082.807  0.000425 1329
  15.290   2305.490   2344.711   2080.867  0.000434 1330
  15.300   2272.320   2302.359   2078.941  0.000440 1331
  15.310   2240.330   2261.583   2077.038  0.000446 1332
  15.320   2211.530   2225.958   2075.172  0.000452 1333
  15.330   2179.100   2196.638   2073.368  0.000459 1334
  15.340   2158.200   2173.412   2071.668  0.000463 1335
  15.350   2142.960   2155.540   2070.149  0.000467 1336
  15.360   2142.090   2142.264   2068.965  0.000467 1337
  15.370   2123.070   2133.128   2068.462  0.000471 1338
  15.380   2136.800   2128.397   2069.531  0.000468 1339
  15.390   2125.480   2130.352   2074.898  0.000470 1340
  15.400   2153.830   2147.641   2093.495  0.000464 1341
  15.410   2170.460   2175.892   2121.098  0.000461 1342
  15.420   2144.120   2146.608   2089.248  0.000466 1343
  15.430   2122.470   2128.289   2066.405  0.000471 1344
  15.440   2133.760   2125.236   2056.793  0.000469 1345
  15.450   2120.930   2128.546   2051.478  0.000471 1346
  15.460   2140.380   2135.370   2047.738  0.000467 1347
  15.470   2147.770   2144.437   2044.679  0.000466 1348
  15.480   2173.750   2154.646   2041.958  0.000460 1349
  15.490   2165.440   2164.862   2039.419  0.000462 1350
  15.500   2182.880   2174.198   2036.986  0.000458 1351
  15.510   2177.180   2182.455   2034.617  0.000459 1352
  15.520   2196.920   2190.482   2032.289  0.000455 1353
  15.530   2193.680   2199.968   2029.987  0.000456 1354
  15.540   2230.030   2212.828   2027.702  0.000448 1355
  15.550   2227.130   2230.440   2025.427  0.000449 1356
  15.560   2260.770   2253.108   2023.159  0.000442 1357
  15.570   2259.340   2279.639   2020.895  0.000443 1358
  15.580   2300.380   2307.220   2018.633  0.000435 1359
  15.590   2324.060   2331.980   2016.372  0.000430 1360
  15.600   2338.540   2350.478   2014.110  0.000428 1361
  15.610   2345.060   2361.409   2011.847  0.000426 1362
  15.620   2360.150   2366.508   2009.582  0.000424 1363
  15.630   2345.220   2369.316   2007.314  0.000426 1364
  15.640   2369.030   2372.538   2005.044  0.000422 1365
  15.650   2365.790   2375.759   2002.772  0.000423 1366
  15.660   2378.550   2375.028   2000.496  0.000420 1367
  15.670   2351.840   2365.008   1998.218  0.000425 1368
  15.680   2338.630   2342.471   1995.936  0.000428 1369
  15.690   2292.050   2308.777   1993.652  0.000436 1370
  15.700   2270.650   2269.264   1991.364  0.000440 1371
  15.710   2229.250   2230.123   1989.073  0.000449 1372
  15.720   2201.590   2195.958   1986.779  0.000454 1373
  15.730   2167.380   2169.117   1984.483  0.000461 1374
  15.740   2161.320   2150.137   1982.183  0.000463 1375
  15.750   2122.160   2138.444   1979.880  0.000471 1376
  15.760   2134.250   2133.024   1977.574  0.000469 1377
  15.770   2130.210   2132.954   1975.266  0.000469 1378
  15.780   2147.360   2137.727   1972.955  0.000466 1379
  15.790   2148.410   2146.852   1970.641  0.000465 1380
  15.800   2154.730   2158.929   1968.325  0.000464 1381
  15.810   2156.620   2171.008   1966.006  0.000464 1382
  15.820   2168.800   2178.928   1963.685  0.000461 1383
  15.830   2156.080   2178.849   1961.361  0.000464 1384
  15.840   2165.030   2169.227   1959.036  0.000462 1385
  15.850   2127.260   2151.670   1956.708  0.000470 1386
  15.860   2119.300   2129.756   1954.378  0.000472 1387
  15.870   2081.420   2106.871   1952.008  0.000480 1388
  15.880   2071.210   2085.286   1949.676  0.000483 1389
  15.890   2049.520   2066.034   1947.342  0.000488 1390
  15.900   2035.580   2049.580   1945.006  0.000491 1391
  15.910   2024.400   2036.032   1942.668  0.000494 1392
  15.920   2027.830   2025.287   1940.329  0.000493 1393
  15.930   1999.400   2017.039   1937.988  0.000500 1394
  15.940   2003.650   2010.816   1935.646  0.000499 1395
  15.950   1998.090   2005.991   1933.302  0.000500 1396
  15.960   1996.480   2001.733   1930.957  0.000501 1397
  15.970   1981.270   1997.145   1928.611  0.000505 1398
  15.980   1989.740   1991.395   1926.263  0.000503 1399
  15.990   1964.530   1984.174   1923.915  0.000509 1400
  16.000   1971.050   1975.799   1921.566  0.000507 1401
  16.010   1961.120   1967.020   1919.216  0.000510 1402
  16.020   1961.650   1958.585   1916.865  0.000510 1403
  16.030   1946.180   1950.975   1914.513  0.000514 1404
  16.040   1944.060   1944.413   1912.161  0.000514 1405
  16.050   1927.880   1938.904   1909.808  0.000519 1406
  16.060   1936.080   1934.385   1907.455  0.000517 1407
  16.070   1924.710   1930.739   1905.101  0.000520 1408
  16.080   1933.330   1927.886   1902.748  0.000517 1409
  16.090   1920.790   1925.739   1900.393  0.000521 1410
  16.100   1931.430   1924.185   1898.039  0.000518 1411
  16.110   1915.340   1923.080   1895.685  0.000522 1412
  16.120   1925.110   1922.203   1893.330  0.000519 1413
  16.130   1919.670   1921.265   1890.976  0.000521 1414
  16.140   1930.700   1920.027   1888.622  0.000518 1415
  16.150   1921.940   1918.415   1886.267  0.000520 1416
  16.160   1917.560   1916.611   1883.914  0.000521 1417
  16.170   1904.920   1914.937   1881.560  0.000525 1418
  16.180   1919.020   1913.704   1879.207  0.000521 1419
  16.190   1913.240   1913.189   1876.854  0.000523 1420
  16.200   1926.970   1913.553   1874.502  0.000519 1421
  16.210   1924.590   1914.946   1872.151  0.000520 1422
  16.220   1936.330   1917.536   1869.800  0.000516 1423
  16.230   1921.790   1921.567   1867.450  0.000520 1424
  16.240   1937.590   1927.392   1865.100  0.000516 1425
  16.250   1937.790   1935.542   1862.752  0.000516 1426
  16.260   1960.160   1946.692   1860.404  0.000510 1427
  16.270   1965.270   1961.750   1858.057  0.000509 1428
  16.280   1985.250   1981.912   1855.711  0.000504 1429
  16.290   2002.650   2008.741   1853.367  0.000499 1430
  16.300   2048.040   2044.232   1851.023  0.000488 1431
  16.310   2096.990   2090.738   1848.681  0.000477 1432
  16.320   2167.610   2150.770   1846.340  0.000461 1433
  16.330   2245.770   2226.205   1844.000  0.000445 1434
  16.340   2342.100   2316.709   1841.661  0.000427 1435
  16.350   2409.130   2417.144   1839.324  0.000415 1436
  16.360   2506.000   2514.887   1836.989  0.000399 1437
  16.370   2542.900   2590.076   1834.654  0.000393 1438
  16.380   2573.210   2622.492   1832.322  0.000389 1439
  16.390   2540.040   2603.108   1829.991  0.000394 1440
  16.400   2507.100   2540.929   1827.661  0.000399 1441
  16.410   2422.330   2457.382   1825.334  0.000413 1442
  16.420   2370.930   2373.658   1823.008  0.000422 1443
  16.430   2302.780   2302.832   1820.683  0.000434 1444
  16.440   2266.480   2248.984   1818.361  0.000441 1445
  16.450   2209.580   2209.695   1816.041  0.000453 1446
  16.460   2184.590   2179.039   1813.722  0.000458 1447
  16.470   2136.680   2150.425   1811.406  0.000468 1448
  16.480   2125.750   2119.257   1809.091  0.000470 1449
  16.490   2078.120   2084.440   1806.779  0.000481 1450
  16.500   2048.200   2047.829   1804.468  0.000488 1451
  16.510   1997.650   2012.204   1802.160  0.000501 1452
  16.520   1980.450   1979.583   1799.854  0.000505 1453
  16.530   1937.780   1950.752   1797.550  0.000516 1454
  16.540   1925.180   1925.650   1795.248  0.000519 1455
  16.550   1904.940   1903.862   1792.949  0.000525 1456
  16.560   1898.080   1884.975   1790.652  0.000527 1457
  16.570   1881.620   1868.698   1788.358  0.000531 1458
  16.580   1872.700   1854.763   1786.065  0.000534 1459
  16.590   1849.130   1842.923   1783.776  0.000541 1460
  16.600   1848.190   1832.882   1781.489  0.000541 1461
  16.610   1834.740   1824.372   1779.204  0.000545 1462
  16.620   1836.110   1817.132   1776.922  0.000545 1463
  16.630   1822.520   1810.931   1774.642  0.000549 1464
  16.640   1823.240   1805.578   1772.365  0.000548 1465
  16.650   1809.460   1800.920   1770.091  0.000553 1466
  16.660   1817.490   1796.843   1767.819  0.000550 1467
  16.670   1812.220   1793.276   1765.550  0.000552 1468
  16.680   1814.550   1790.137   1763.284  0.000551 1469
  16.690   1809.480   1787.411   1761.021  0.000553 1470
  16.700   1810.900   1785.099   1758.761  0.000552 1471
  16.710   1799.280   1783.149   1756.503  0.000556 1472
  16.720   1808.410   1781.617   1754.248  0.000553 1473
  16.730   1814.650   1780.515   1751.996  0.000551 1474
  16.740   1822.410   1779.859   1749.747  0.000549 1475
  16.750   1814.270   1779.726   1747.501  0.000551 1476
  16.760   1822.340   1780.164   1745.258  0.000549 1477
  16.770   1811.410   1781.318   1743.018  0.000552 1478
  16.780   1816.110   1783.294   1740.781  0.000551 1479
  16.790   1823.000   1786.312   1738.548  0.000549 1480
  16.800   1836.430   1790.618   1736.317  0.000545 1481
  16.810   1834.610   1796.554   1734.089  0.000545 1482
  16.820   1851.820   1804.578   1731.865  0.000540 1483
  16.830   1850.300   1815.300   1729.643  0.000540 1484
  16.840   1880.050   1829.541   1727.425  0.000532 1485
  16.850   1895.290   1848.344   1725.210  0.000528 1486
  16.860   1928.080   1873.061   1722.999  0.000519 1487
  16.870   1960.890   1905.341   1720.790  0.000510 1488
  16.880   2014.010   1946.879   1718.585  0.000497 1489
  16.890   2053.630   1999.036   1716.383  0.000487 1490
  16.900   2120.380   2061.839   1714.184  0.000472 1491
  16.910   2176.150   2132.607   1711.989  0.000460 1492
  16.920   2247.600   2204.886   1709.797  0.000445 1493
  16.930   2273.920   2269.302   1707.609  0.000440 1494
  16.940   2309.870   2317.110   1705.424  0.000433 1495
  16.950   2303.090   2343.805   1703.242  0.000434 1496
  16.960   2309.910   2349.548   1701.064  0.000433 1497
  16.970   2284.230   2335.988   1698.889  0.000438 1498
  16.980   2259.030   2305.104   1696.718  0.000443 1499
  16.990   2213.130   2261.147   1694.550  0.000452 1500
  17.000   2180.120   2212.067   1692.386  0.000459 1501
  17.010   2131.870   2167.289   1690.225  0.000469 1502
  17.020   2133.890   2134.724   1688.068  0.000469 1503
  17.030   2121.950   2119.558   1685.914  0.000471 1504
  17.040   2147.070   2124.995   1683.764  0.000466 1505
  17.050   2186.920   2153.585   1681.617  0.000457 1506
  17.060   2256.750   2208.295   1679.474  0.000443 1507
  17.070   2345.200   2293.142   1677.334  0.000426 1508
  17.080   2503.960   2413.044   1675.199  0.000399 1509
  17.090   2683.650   2572.720   1673.066  0.000373 1510
  17.100   2919.480   2773.758   1670.938  0.000343 1511
  17.110   3143.020   3009.347   1668.813  0.000318 1512
  17.120   3380.900   3257.303   1666.692  0.000296 1513
  17.130   3514.260   3476.102   1664.574  0.000285 1514
  17.140   3624.220   3612.727   1662.460  0.000276 1515
  17.150   3582.220   3626.145   1660.350  0.000279 1516
  17.160   3457.000   3511.749   1658.244  0.000289 1517
  17.170   3246.370   3305.547   1656.141  0.000308 1518
  17.180   3027.870   3060.531   1654.042  0.000330 1519
  17.190   2790.140   2820.423   1651.946  0.000358 1520
  17.200   2600.260   2609.187   1649.855  0.000385 1521
  17.210   2427.190   2434.019   1647.767  0.000412 1522
  17.220   2304.590   2292.773   1645.683  0.000434 1523
  17.230   2189.740   2180.012   1643.602  0.000457 1524
  17.240   2100.360   2090.340   1641.526  0.000476 1525
  17.250   2020.970   2019.360   1639.453  0.000495 1526
  17.260   1982.760   1963.514   1637.384  0.000504 1527
  17.270   1936.370   1919.674   1635.319  0.000516 1528
  17.280   1908.470   1885.064   1633.257  0.000524 1529
  17.290   1871.650   1857.401   1631.200  0.000534 1530
  17.300   1867.180   1835.069   1629.146  0.000536 1531
  17.310   1829.620   1817.076   1627.096  0.000547 1532
  17.320   1827.650   1802.946   1625.049  0.000547 1533
  17.330   1811.060   1792.340   1623.007  0.000552 1534
  17.340   1811.170   1784.955   1620.968  0.000552 1535
  17.350   1799.770   1780.464   1618.933  0.000556 1536
  17.360   1805.260   1778.555   1616.903  0.000554 1537
  17.370   1782.290   1778.767   1614.875  0.000561 1538
  17.380   1789.270   1780.237   1612.852  0.000559 1539
  17.390   1777.020   1781.428   1610.833  0.000563 1540
  17.400   1778.520   1780.296   1608.817  0.000562 1541
  17.410   1764.590   1774.986   1606.805  0.000567 1542
  17.420   1756.440   1764.687   1604.797  0.000569 1543
  17.430   1726.910   1750.099   1602.793  0.000579 1544
  17.440   1731.190   1733.051   1600.793  0.000578 1545
  17.450   1710.180   1715.629   1598.796  0.000585 1546
  17.460   1707.750   1699.467   1596.803  0.000586 1547
  17.470   1692.380   1685.492   1594.815  0.000591 1548
  17.480   1694.090   1674.043   1592.830  0.000590 1549
  17.490   1675.260   1665.114   1590.849  0.000597 1550
  17.500   1681.990   1658.440   1588.871  0.000595 1551
  17.510   1672.320   1653.716   1586.898  0.000598 1552
  17.520   1667.190   1650.626   1584.928  0.000600 1553
  17.530   1669.590   1648.918   1582.963  0.000599 1554
  17.540   1673.090   1648.412   1581.001  0.000598 1555
  17.550   1657.120   1648.998   1579.043  0.000603 1556
  17.560   1670.240   1650.456   1577.089  0.000599 1557
  17.570   1668.790   1652.268   1575.138  0.000599 1558
  17.580   1678.200   1653.610   1573.192  0.000596 1559
  17.590   1669.840   1653.479   1571.249  0.000599 1560
  17.600   1672.710   1651.237   1569.310  0.000598 1561
  17.610   1646.520   1646.974   1567.375  0.000607 1562
  17.620   1658.030   1641.540   1565.444  0.000603 1563
  17.630   1648.120   1635.997   1563.517  0.000607 1564
  17.640   1637.740   1631.246   1561.593  0.000611 1565
  17.650   1635.300   1627.727   1559.673  0.000612 1566
  17.660   1632.430   1625.454   1557.757  0.000613 1567
  17.670   1623.730   1624.113   1555.845  0.000616 1568
  17.680   1634.270   1623.191   1553.937  0.000612 1569
  17.690   1621.870   1622.104   1552.033  0.000617 1570
  17.700   1633.690   1620.357   1550.132  0.000612 1571
  17.710   1619.860   1617.642   1548.235  0.000617 1572
  17.720   1621.440   1613.946   1546.342  0.000617 1573
  17.730   1612.440   1609.447   1544.453  0.000620 1574
  17.740   1613.630   1604.436   1542.568  0.000620 1575
  17.750   1611.070   1599.272   1540.686  0.000621 1576
  17.760   1609.610   1594.322   1538.808  0.000621 1577
  17.770   1594.370   1589.985   1536.934  0.000627 1578
  17.780   1600.790   1586.576   1535.064  0.000625 1579
  17.790   1589.020   1584.377   1533.198  0.000629 1580
  17.800   1601.820   1583.606   1531.335  0.000624 1581
  17.810   1596.710   1584.459   1529.476  0.000626 1582
  17.820   1608.280   1587.068   1527.621  0.000622 1583
  17.830   1606.910   1591.544   1525.770  0.000622 1584
  17.840   1621.430   1597.866   1523.922  0.000617 1585
  17.850   1613.580   1605.721   1522.079  0.000620 1586
  17.860   1628.350   1614.404   1520.239  0.000614 1587
  17.870   1624.910   1622.690   1518.402  0.000615 1588
  17.880   1637.340   1629.014   1516.570  0.000611 1589
  17.890   1627.790   1631.981   1514.741  0.000614 1590
  17.900   1630.950   1631.019   1512.916  0.000613 1591
  17.910   1614.490   1626.710   1511.095  0.000619 1592
  17.920   1615.730   1620.569   1509.277  0.000619 1593
  17.930   1609.220   1614.375   1507.464  0.000621 1594
  17.940   1610.340   1609.571   1505.654  0.000621 1595
  17.950   1604.210   1607.041   1503.848  0.000623 1596
  17.960   1603.640   1607.133   1502.045  0.000624 1597
  17.970   1597.030   1609.760   1500.246  0.000626 1598
  17.980   1613.650   1614.539   1498.451  0.000620 1599
  17.990   1615.500   1620.870   1496.660  0.000619 1600
  18.000   1628.500   1628.178   1494.872  0.000614 1601
  18.010   1625.950   1636.194   1493.089  0.000615 1602
  18.020   1638.470   1645.203   1491.308  0.000610 1603
  18.030   1639.100   1656.163   1489.532  0.000610 1604
  18.040   1658.600   1670.524   1487.759  0.000603 1605
  18.050   1672.080   1689.895   1485.990  0.000598 1606
  18.060   1707.870   1715.765   1484.225  0.000586 1607
  18.070   1723.970   1749.224   1482.464  0.000580 1608
  18.080   1775.870   1790.582   1480.706  0.000563 1609
  18.090   1803.410   1838.757   1478.952  0.000555 1610
  18.100   1862.400   1890.767   1477.201  0.000537 1611
  18.110   1903.330   1941.573   1475.454  0.000525 1612
  18.120   1940.780   1985.101   1473.711  0.000515 1613
  18.130   1971.430   2016.832   1471.972  0.000507 1614
  18.140   2007.150   2036.401   1470.236  0.000498 1615
  18.150   2013.140   2048.629   1468.504  0.000497 1616
  18.160   2052.920   2061.511   1466.776  0.000487 1617
  18.170   2085.310   2082.997   1465.052  0.000480 1618
  18.180   2158.290   2118.440   1463.331  0.000463 1619
  18.190   2209.690   2169.238   1461.614  0.000453 1620
  18.200   2286.280   2231.943   1459.900  0.000437 1621
  18.210   2336.590   2297.573   1458.190  0.000428 1622
  18.220   2404.180   2352.200   1456.484  0.000416 1623
  18.230   2416.090   2380.619   1454.782  0.000414 1624
  18.240   2404.740   2372.705   1453.083  0.000416 1625
  18.250   2340.180   2328.517   1451.388  0.000427 1626
  18.260   2278.300   2258.040   1449.696  0.000439 1627
  18.270   2169.070   2174.861   1448.008  0.000461 1628
  18.280   2099.130   2090.067   1446.324  0.000476 1629
  18.290   2015.140   2009.998   1444.644  0.000496 1630
  18.300   1948.540   1937.333   1442.967  0.000513 1631
  18.310   1871.680   1873.056   1441.294  0.000534 1632
  18.320   1821.970   1817.511   1439.625  0.000549 1633
  18.330   1760.530   1770.661   1437.959  0.000568 1634
  18.340   1733.300   1731.991   1436.297  0.000577 1635
  18.350   1692.130   1700.318   1434.638  0.000591 1636
  18.360   1674.510   1673.753   1432.984  0.000597 1637
  18.370   1647.030   1650.130   1431.333  0.000607 1638
  18.380   1624.470   1627.976   1429.685  0.000616 1639
  18.390   1599.140   1607.145   1428.042  0.000625 1640
  18.400   1588.290   1588.499   1426.401  0.000630 1641
  18.410   1573.400   1572.958   1424.765  0.000636 1642
  18.420   1567.670   1560.988   1423.132  0.000638 1643
  18.430   1560.700   1552.339   1421.503  0.000641 1644
  18.440   1557.110   1546.329   1419.878  0.000642 1645
  18.450   1538.900   1542.018   1418.256  0.000650 1646
  18.460   1541.630   1538.352   1416.638  0.000649 1647
  18.470   1531.130   1534.318   1415.023  0.000653 1648
  18.480   1529.580   1529.093   1413.412  0.000654 1649
  18.490   1518.920   1522.323   1411.805  0.000658 1650
  18.500   1515.620   1514.270   1410.202  0.000660 1651
  18.510   1494.540   1505.511   1408.602  0.000669 1652
  18.520   1486.180   1496.522   1407.006  0.000673 1653
  18.530   1476.180   1487.426   1405.413  0.000677 1654
  18.540   1467.460   1478.196   1403.824  0.000681 1655
  18.550   1453.380   1468.895   1402.239  0.000688 1656
  18.560   1451.370   1459.855   1400.657  0.000689 1657
  18.570   1434.970   1451.484   1399.079  0.000697 1658
  18.580   1446.610   1444.136   1397.505  0.000691 1659
  18.590   1439.130   1438.011   1395.934  0.000695 1660
  18.600   1438.440   1433.188   1394.367  0.000695 1661
  18.610   1433.660   1429.623   1392.803  0.000698 1662
  18.620   1435.460   1427.236   1391.244  0.000697 1663
  18.630   1427.050   1425.909   1389.687  0.000701 1664
  18.640   1432.620   1425.513   1388.135  0.000698 1665
  18.650   1432.940   1425.785   1386.586  0.000698 1666
  18.660   1442.200   1426.378   1385.041  0.000693 1667
  18.670   1439.350   1426.854   1383.499  0.000695 1668
  18.680   1442.070   1426.692   1381.961  0.000693 1669
  18.690   1431.350   1425.437   1380.426  0.000699 1670
  18.700   1430.340   1422.823   1378.896  0.000699 1671
  18.710   1421.580   1418.896   1377.368  0.000703 1672
  18.720   1426.530   1413.941   1375.845  0.000701 1673
  18.730   1414.240   1408.416   1374.325  0.000707 1674
  18.740   1414.370   1402.783   1372.808  0.000707 1675
  18.750   1391.540   1397.398   1371.296  0.000719 1676
  18.760   1398.120   1392.467   1369.786  0.000715 1677
  18.770   1392.810   1388.074   1368.281  0.000718 1678
  18.780   1393.870   1384.218   1366.779  0.000717 1679
  18.790   1383.330   1380.853   1365.280  0.000723 1680
  18.800   1384.060   1377.923   1363.785  0.000723 1681
  18.810   1367.670   1375.377   1362.294  0.000731 1682
  18.820   1376.170   1373.151   1360.806  0.000727 1683
  18.830   1370.690   1371.177   1359.322  0.000730 1684
  18.840   1378.970   1369.385   1357.842  0.000725 1685
  18.850   1367.910   1367.711   1356.365  0.000731 1686
  18.860   1374.180   1366.049   1354.891  0.000728 1687
  18.870   1363.450   1364.333   1353.421  0.000733 1688
  18.880   1364.910   1362.507   1351.955  0.000733 1689
  18.890   1361.250   1360.592   1350.492  0.000735 1690
  18.900   1361.690   1358.662   1349.033  0.000734 1691
  18.910   1357.620   1356.758   1347.577  0.000737 1692
  18.920   1358.070   1354.944   1346.125  0.000736 1693
  18.930   1351.320   1353.247   1344.676  0.000740 1694
  18.940   1354.240   1351.659   1343.231  0.000738 1695
  18.950   1354.040   1350.191   1341.789  0.000739 1696
  18.960   1357.490   1348.832   1340.351  0.000737 1697
  18.970   1352.100   1347.590   1338.917  0.000740 1698
  18.980   1356.650   1346.445   1337.485  0.000737 1699
  18.990   1345.630   1345.377   1336.058  0.000743 1700
  19.000   1349.710   1344.355   1334.633  0.000741 1701
  19.010   1346.230   1343.373   1333.213  0.000743 1702
  19.020   1350.100   1342.392   1331.795  0.000741 1703
  19.030   1345.280   1341.391   1330.381  0.000743 1704
  19.040   1353.940   1340.360   1328.971  0.000739 1705
  19.050   1332.380   1339.297   1327.564  0.000751 1706
  19.060   1340.120   1338.240   1326.161  0.000746 1707
  19.070   1335.960   1337.216   1324.760  0.000749 1708
  19.080   1342.710   1336.267   1323.364  0.000745 1709
  19.090   1344.570   1335.435   1321.970  0.000744 1710
  19.100   1343.720   1334.749   1320.580  0.000744 1711
  19.110   1332.480   1334.272   1319.194  0.000750 1712
  19.120   1341.320   1334.000   1317.811  0.000746 1713
  19.130   1336.140   1333.969   1316.431  0.000748 1714
  19.140   1349.980   1334.189   1315.054  0.000741 1715
  19.150   1340.360   1334.701   1313.681  0.000746 1716
  19.160   1342.320   1335.523   1312.312  0.000745 1717
  19.170   1333.000   1336.705   1310.945  0.000750 1718
  19.180   1344.480   1338.327   1309.582  0.000744 1719
  19.190   1343.830   1340.494   1308.222  0.000744 1720
  19.200   1348.980   1343.386   1306.866  0.000741 1721
  19.210   1349.180   1347.118   1305.513  0.000741 1722
  19.220   1360.190   1351.892   1304.163  0.000735 1723
  19.230   1354.350   1357.903   1302.816  0.000738 1724
  19.240   1373.530   1365.358   1301.473  0.000728 1725
  19.250   1382.040   1374.451   1300.132  0.000724 1726
  19.260   1402.710   1385.385   1298.796  0.000713 1727
  19.270   1410.340   1398.241   1297.462  0.000709 1728
  19.280   1429.290   1413.014   1296.131  0.000700 1729
  19.290   1432.140   1429.443   1294.804  0.000698 1730
  19.300   1459.750   1447.079   1293.480  0.000685 1731
  19.310   1474.320   1465.303   1292.159  0.000678 1732
  19.320   1499.400   1483.825   1290.841  0.000667 1733
  19.330   1515.830   1503.139   1289.527  0.000660 1734
  19.340   1537.520   1524.492   1288.216  0.000650 1735
  19.350   1546.680   1549.098   1286.907  0.000647 1736
  19.360   1577.020   1577.285   1285.602  0.000634 1737
  19.370   1602.700   1607.811   1284.300  0.000624 1738
  19.380   1632.810   1637.894   1283.001  0.000612 1739
  19.390   1653.570   1663.878   1281.705  0.000605 1740
  19.400   1672.460   1682.333   1280.413  0.000598 1741
  19.410   1671.470   1691.289   1279.123  0.000598 1742
  19.420   1676.060   1690.893   1277.836  0.000597 1743
  19.430   1664.850   1683.046   1276.553  0.000601 1744
  19.440   1661.210   1670.362   1275.272  0.000602 1745
  19.450   1637.860   1655.292   1273.995  0.000611 1746
  19.460   1622.920   1639.760   1272.720  0.000616 1747
  19.470   1602.150   1625.240   1271.448  0.000624 1748
  19.480   1601.390   1613.086   1270.180  0.000624 1749
  19.490   1591.610   1604.522   1268.914  0.000628 1750
  19.500   1602.700   1600.527   1267.652  0.000624 1751
  19.510   1600.690   1601.415   1266.392  0.000625 1752
  19.520   1624.190   1606.485   1265.135  0.000616 1753
  19.530   1619.150   1614.150   1263.881  0.000618 1754
  19.540   1644.640   1622.305   1262.630  0.000608 1755
  19.550   1646.400   1628.723   1261.382  0.000607 1756
  19.560   1653.680   1631.455   1260.137  0.000605 1757
  19.570   1647.340   1628.700   1258.895  0.000607 1758
  19.580   1632.290   1618.851   1257.655  0.000613 1759
  19.590   1597.910   1600.772   1256.419  0.000626 1760
  19.600   1576.190   1574.643   1255.185  0.000634 1761
  19.610   1535.030   1542.318   1253.954  0.000651 1762
  19.620   1516.750   1506.912   1252.726  0.000659 1763
  19.630   1469.380   1471.618   1251.501  0.000681 1764
  19.640   1445.060   1438.898   1250.278  0.000692 1765
  19.650   1403.040   1410.168   1249.059  0.000713 1766
  19.660   1385.920   1385.943   1247.842  0.000722 1767
  19.670   1361.720   1366.140   1246.627  0.000734 1768
  19.680   1355.010   1350.389   1245.416  0.000738 1769
  19.690   1340.260   1338.216   1244.207  0.000746 1770
  19.700   1331.910   1329.131   1243.001  0.000751 1771
  19.710   1314.200   1322.659   1241.798  0.000761 1772
  19.720   1318.500   1318.344   1240.597  0.000758 1773
  19.730   1315.070   1315.755   1239.399  0.000760 1774
  19.740   1319.020   1314.535   1238.204  0.000758 1775
  19.750   1313.890   1314.430   1237.011  0.000761 1776
  19.760   1314.870   1315.284   1235.821  0.000761 1777
  19.770   1310.750   1316.933   1234.634  0.000763 1778
  19.780   1318.120   1319.059   1233.449  0.000759 1779
  19.790   1315.110   1321.119   1232.267  0.000760 1780
  19.800   1325.270   1322.437   1231.088  0.000755 1781
  19.810   1316.270   1322.397   1229.911  0.000760 1782
  19.820   1319.090   1320.742   1228.737  0.000758 1783
  19.830   1304.560   1317.639   1227.565  0.000767 1784
  19.840   1311.620   1313.564   1226.396  0.000762 1785
  19.850   1304.820   1309.028   1225.229  0.000766 1786
  19.860   1297.910   1304.333   1224.066  0.000770 1787
  19.870   1293.510   1299.664   1222.904  0.000773 1788
  19.880   1294.010   1295.136   1221.745  0.000773 1789
  19.890   1278.500   1290.989   1220.589  0.000782 1790
  19.900   1283.080   1287.563   1219.435  0.000779 1791
  19.910   1280.150   1285.231   1218.284  0.000781 1792
  19.920   1290.930   1284.231   1217.135  0.000775 1793
  19.930   1282.020   1284.525   1215.989  0.000780 1794
  19.940   1287.010   1285.824   1214.845  0.000777 1795
  19.950   1283.020   1287.576   1213.704  0.000779 1796
  19.960   1284.980   1289.099   1212.565  0.000778 1797
  19.970   1286.480   1289.798   1211.428  0.000777 1798
  19.980   1291.070   1289.398   1210.294  0.000775 1799
  19.990   1286.460   1288.071   1209.163  0.000777 1800
  20.000   1288.930   1286.350   1208.034  0.000776 1801
  20.010   1270.560   1284.890   1206.907  0.000787 1802
  20.020   1286.290   1284.194   1205.783  0.000777 1803
  20.030   1281.670   1284.575   1204.662  0.000780 1804
  20.040   1290.030   1286.135   1203.542  0.000775 1805
  20.050   1288.470   1288.829   1202.425  0.000776 1806
  20.060   1292.050   1292.520   1201.311  0.000774 1807
  20.070   1282.530   1296.905   1200.199  0.000780 1808
  20.080   1299.450   1301.517   1199.089  0.000770 1809
  20.090   1294.990   1305.769   1197.982  0.000772 1810
  20.100   1300.640   1309.038   1196.877  0.000769 1811
  20.110   1296.000   1310.780   1195.775  0.000772 1812
  20.120   1303.240   1310.608   1194.675  0.000767 1813
  20.130   1293.160   1308.302   1193.577  0.000773 1814
  20.140   1297.270   1303.963   1192.482  0.000771 1815
  20.150   1286.330   1298.134   1191.389  0.000777 1816
  20.160   1286.480   1291.754   1190.299  0.000777 1817
  20.170   1280.840   1285.846   1189.210  0.000781 1818
  20.180   1281.260   1281.199   1188.125  0.000780 1819
  20.190   1271.420   1278.171   1187.041  0.000787 1820
  20.200   1273.740   1276.667   1185.960  0.000785 1821
  20.210   1271.120   1276.154   1184.881  0.000787 1822
  20.220   1273.550   1275.840   1183.805  0.000785 1823
  20.230   1271.980   1274.875   1182.731  0.000786 1824
  20.240   1269.800   1272.567   1181.660  0.000788 1825
  20.250   1260.080   1268.593   1180.590  0.000794 1826
  20.260   1258.880   1263.143   1179.523  0.000794 1827
  20.270   1251.690   1256.807   1178.459  0.000799 1828
  20.280   1251.460   1250.338   1177.397  0.000799 1829
  20.290   1248.440   1244.425   1176.337  0.000801 1830
  20.300   1250.680   1239.608   1175.279  0.000800 1831
  20.310   1235.550   1236.235   1174.224  0.000809 1832
  20.320   1242.450   1234.526   1173.171  0.000805 1833
  20.330   1242.520   1234.552   1172.121  0.000805 1834
  20.340   1249.040   1236.274   1171.073  0.000801 1835
  20.350   1244.990   1239.522   1170.027  0.000803 1836
  20.360   1249.970   1243.906   1168.984  0.000800 1837
  20.370   1248.710   1248.821   1167.943  0.000801 1838
  20.380   1256.870   1253.457   1166.904  0.000796 1839
  20.390   1253.850   1256.849   1165.868  0.000798 1840
  20.400   1259.440   1258.121   1164.834  0.000794 1841
  20.410   1244.470   1256.787   1163.802  0.000804 1842
  20.420   1250.310   1252.945   1162.773  0.000800 1843
  20.430   1233.990   1247.296   1161.746  0.000810 1844
  20.440   1236.960   1240.872   1160.722  0.000808 1845
  20.450   1232.670   1234.592   1159.700  0.000811 1846
  20.460   1233.730   1229.056   1158.680  0.000811 1847
  20.470   1218.910   1224.555   1157.663  0.000820 1848
  20.480   1230.230   1221.188   1156.648  0.000813 1849
  20.490   1217.000   1218.940   1155.635  0.000822 1850
  20.500   1221.690   1217.780   1154.625  0.000819 1851
  20.510   1220.000   1217.727   1153.617  0.000820 1852
  20.520   1226.110   1218.731   1152.612  0.000816 1853
  20.530   1225.650   1220.768   1151.609  0.000816 1854
  20.540   1228.850   1223.798   1150.608  0.000814 1855
  20.550   1220.700   1227.864   1149.610  0.000819 1856
  20.560   1237.820   1233.035   1148.614  0.000808 1857
  20.570   1241.770   1239.490   1147.620  0.000805 1858
  20.580   1252.930   1247.372   1146.629  0.000798 1859
  20.590   1252.260   1256.639   1145.641  0.000799 1860
  20.600   1269.200   1266.912   1144.655  0.000788 1861
  20.610   1265.080   1277.444   1143.671  0.000790 1862
  20.620   1282.930   1287.303   1142.689  0.000779 1863
  20.630   1283.090   1295.692   1141.711  0.000779 1864
  20.640   1295.470   1302.196   1140.734  0.000772 1865
  20.650   1297.100   1306.796   1139.760  0.000771 1866
  20.660   1304.190   1309.601   1138.788  0.000767 1867
  20.670   1290.000   1310.740   1137.819  0.000775 1868
  20.680   1298.540   1310.327   1136.853  0.000770 1869
  20.690   1293.590   1308.554   1135.888  0.000773 1870
  20.700   1303.450   1305.674   1134.927  0.000767 1871
  20.710   1296.040   1301.866   1133.967  0.000772 1872
  20.720   1293.800   1297.105   1133.011  0.000773 1873
  20.730   1276.820   1291.162   1132.056  0.000783 1874
  20.740   1279.690   1283.791   1131.104  0.000781 1875
  20.750   1266.790   1274.936   1130.155  0.000789 1876
  20.760   1257.920   1264.948   1129.208  0.000795 1877
  20.770   1244.420   1254.579   1128.264  0.000804 1878
  20.780   1241.750   1244.639   1127.322  0.000805 1879
  20.790   1223.440   1235.734   1126.383  0.000817 1880
  20.800   1231.530   1228.082   1125.446  0.000812 1881
  20.810   1221.170   1221.662   1124.512  0.000819 1882
  20.820   1222.470   1216.366   1123.580  0.000818 1883
  20.830   1210.090   1212.160   1122.651  0.000826 1884
  20.840   1213.870   1209.062   1121.724  0.000824 1885
  20.850   1203.640   1206.994   1120.800  0.000831 1886
  20.860   1208.430   1205.617   1119.878  0.000828 1887
  20.870   1201.400   1204.305   1118.959  0.000832 1888
  20.880   1202.960   1202.303   1118.042  0.000831 1889
  20.890   1199.540   1198.971   1117.128  0.000834 1890
  20.900   1195.150   1194.110   1116.217  0.000837 1891
  20.910   1181.180   1188.049   1115.308  0.000847 1892
  20.920   1186.350   1181.409   1114.402  0.000843 1893
  20.930   1176.830   1174.901   1113.498  0.000850 1894
  20.940   1176.190   1169.108   1112.597  0.000850 1895
  20.950   1167.920   1164.398   1111.699  0.000856 1896
  20.960   1168.610   1160.990   1110.803  0.000856 1897
  20.970   1160.290   1158.952   1109.909  0.000862 1898
  20.980   1166.460   1158.341   1109.019  0.000857 1899
  20.990   1168.610   1159.183   1108.131  0.000856 1900
  21.000   1177.080   1161.551   1107.245  0.000850 1901
  21.010   1178.270   1165.487   1106.362  0.000849 1902
  21.020   1183.890   1171.104   1105.482  0.000845 1903
  21.030   1182.260   1178.486   1104.604  0.000846 1904
  21.040   1205.100   1187.652   1103.729  0.000830 1905
  21.050   1213.420   1198.482   1102.857  0.000824 1906
  21.060   1232.050   1210.611   1101.987  0.000812 1907
  21.070   1238.890   1223.396   1101.120  0.000807 1908
  21.080   1258.970   1235.846   1100.256  0.000794 1909
  21.090   1252.840   1246.797   1099.394  0.000798 1910
  21.100   1265.760   1255.161   1098.535  0.000790 1911
  21.110   1267.040   1260.260   1097.678  0.000789 1912
  21.120   1271.040   1261.911   1096.825  0.000787 1913
  21.130   1264.200   1260.384   1095.973  0.000791 1914
  21.140   1263.750   1256.050   1095.125  0.000791 1915
  21.150   1242.310   1249.230   1094.279  0.000805 1916
  21.160   1241.780   1240.103   1093.436  0.000805 1917
  21.170   1229.360   1228.983   1092.595  0.000813 1918
  21.180   1223.210   1216.305   1091.758  0.000818 1919
  21.190   1208.180   1202.807   1090.923  0.000828 1920
  21.200   1202.200   1189.256   1090.090  0.000832 1921
  21.210   1178.780   1176.387   1089.260  0.000848 1922
  21.220   1178.590   1164.692   1088.433  0.000848 1923
  21.230   1164.160   1154.439   1087.609  0.000859 1924
  21.240   1162.160   1145.690   1086.787  0.000860 1925
  21.250   1145.840   1138.363   1085.968  0.000873 1926
  21.260   1144.590   1132.269   1085.152  0.000874 1927
  21.270   1128.000   1127.198   1084.338  0.000887 1928
  21.280   1127.420   1122.889   1083.527  0.000887 1929
  21.290   1123.000   1119.141   1082.719  0.000890 1930
  21.300   1127.250   1115.781   1081.914  0.000887 1931
  21.310   1117.920   1112.718   1081.111  0.000895 1932
  21.320   1117.740   1109.924   1080.311  0.000895 1933
  21.330   1104.870   1107.403   1079.514  0.000905 1934
  21.340   1113.070   1105.225   1078.719  0.000898 1935
  21.350   1105.680   1103.378   1077.927  0.000904 1936
  21.360   1114.280   1101.921   1077.138  0.000897 1937
  21.370   1102.870   1100.899   1076.351  0.000907 1938
  21.380   1108.830   1100.363   1075.567  0.000902 1939
  21.390   1103.760   1100.360   1074.786  0.000906 1940
  21.400   1109.070   1100.947   1074.008  0.000902 1941
  21.410   1114.600   1102.138   1073.232  0.000897 1942
  21.420   1116.870   1103.961   1072.459  0.000895 1943
  21.430   1110.450   1106.458   1071.689  0.000901 1944
  21.440   1119.110   1109.658   1070.921  0.000894 1945
  21.450   1111.820   1113.650   1070.156  0.000899 1946
  21.460   1126.600   1118.528   1069.394  0.000888 1947
  21.470   1128.590   1124.326   1068.635  0.000886 1948
  21.480   1138.160   1130.880   1067.878  0.000879 1949
  21.490   1140.560   1137.597   1067.124  0.000877 1950
  21.500   1152.500   1143.380   1066.372  0.000868 1951
  21.510   1149.530   1146.929   1065.624  0.000870 1952
  21.520   1150.390   1147.279   1064.878  0.000869 1953
  21.530   1141.770   1144.420   1064.134  0.000876 1954
  21.540   1144.240   1139.401   1063.394  0.000874 1955
  21.550   1130.380   1133.707   1062.656  0.000885 1956
  21.560   1135.560   1128.657   1061.920  0.000881 1957
  21.570   1121.220   1125.106   1061.188  0.000892 1958
  21.580   1132.140   1123.396   1060.458  0.000883 1959
  21.590   1127.100   1123.602   1059.731  0.000887 1960
  21.600   1136.450   1125.667   1059.006  0.000880 1961
  21.610   1141.570   1129.370   1058.284  0.000876 1962
  21.620   1149.030   1134.478   1057.565  0.000870 1963
  21.630   1147.290   1140.636   1056.848  0.000872 1964
  21.640   1160.140   1147.377   1056.134  0.000862 1965
  21.650   1162.440   1154.185   1055.423  0.000860 1966
  21.660   1172.740   1160.533   1054.714  0.000853 1967
  21.670   1165.790   1165.924   1054.008  0.000858 1968
  21.680   1172.070   1170.010   1053.305  0.000853 1969
  21.690   1162.310   1172.593   1052.604  0.000860 1970
  21.700   1171.320   1173.614   1051.906  0.000854 1971
  21.710   1167.880   1173.121   1051.210  0.000856 1972
  21.720   1172.270   1171.226   1050.517  0.000853 1973
  21.730   1166.760   1168.081   1049.827  0.000857 1974
  21.740   1167.950   1163.945   1049.139  0.000856 1975
  21.750   1150.400   1159.215   1048.454  0.000869 1976
  21.760   1157.620   1154.524   1047.771  0.000864 1977
  21.770   1150.450   1150.690   1047.091  0.000869 1978
  21.780   1158.300   1148.455   1046.413  0.000863 1979
  21.790   1149.240   1148.353   1045.738  0.000870 1980
  21.800   1158.860   1150.656   1045.066  0.000863 1981
  21.810   1154.760   1155.395   1044.396  0.000866 1982
  21.820   1168.880   1162.385   1043.729  0.000856 1983
  21.830   1174.510   1171.237   1043.064  0.000851 1984
  21.840   1186.740   1181.352   1042.401  0.000843 1985
  21.850   1189.270   1192.011   1041.742  0.000841 1986
  21.860   1200.580   1202.435   1041.084  0.000833 1987
  21.870   1197.430   1211.993   1040.429  0.000835 1988
  21.880   1212.670   1220.270   1039.777  0.000825 1989
  21.890   1217.550   1227.176   1039.127  0.000821 1990
  21.900   1223.240   1232.725   1038.480  0.000818 1991
  21.910   1221.250   1238.602   1039.593  0.000819 1992
  21.920   1223.900   1240.992   1039.014  0.000817 1993
  21.930   1216.660   1240.924   1038.441  0.000822 1994
  21.940   1217.340   1237.624   1037.874  0.000821 1995
  21.950   1211.670   1230.575   1037.315  0.000825 1996
  21.960   1205.860   1219.908   1036.763  0.000829 1997
  21.970   1188.740   1206.475   1036.218  0.000841 1998
  21.980   1178.360   1191.664   1035.681  0.000849 1999
  21.990   1161.440   1176.964   1035.154  0.000861 2000
  22.000   1157.000   1163.599   1034.635  0.000864 2001
  22.010   1148.430   1152.351   1034.127  0.000871 2002
  22.020   1148.490   1143.558   1033.629  0.000871 2003
  22.030   1136.250   1137.195   1033.144  0.000880 2004
  22.040   1139.870   1132.951   1032.671  0.000877 2005
  22.050   1127.510   1130.342   1032.212  0.000887 2006
  22.060   1134.270   1128.893   1031.768  0.000882 2007
  22.070   1128.730   1128.188   1031.341  0.000886 2008
  22.080   1133.080   1128.016   1030.933  0.000883 2009
  22.090   1127.610   1128.387   1030.546  0.000887 2010
  22.100   1130.180   1129.428   1030.183  0.000885 2011
  22.110   1124.500   1131.233   1029.846  0.000889 2012
  22.120   1131.550   1133.665   1029.538  0.000884 2013
  22.130   1133.040   1136.324   1029.266  0.000883 2014
  22.140   1139.550   1138.552   1029.032  0.000878 2015
  22.150   1131.140   1139.582   1028.844  0.000884 2016
  22.160   1134.210   1138.772   1028.709  0.000882 2017
  22.170   1120.230   1135.850   1028.637  0.000893 2018
  22.180   1126.700   1131.016   1028.640  0.000888 2019
  22.190   1114.880   1124.859   1028.731  0.000897 2020
  22.200   1114.030   1118.169   1028.931  0.000898 2021
  22.210   1098.530   1111.745   1029.264  0.000910 2022
  22.220   1102.770   1106.218   1029.762  0.000907 2023
  22.230   1092.000   1102.038   1030.468  0.000916 2024
  22.240   1098.830   1099.429   1031.442  0.000910 2025
  22.250   1093.250   1098.521   1032.767  0.000915 2026
  22.260   1097.150   1099.360   1034.560  0.000911 2027
  22.270   1090.610   1101.923   1036.996  0.000917 2028
  22.280   1092.800   1106.221   1040.342  0.000915 2029
  22.290   1088.360   1112.334   1045.022  0.000919 2030
  22.300   1101.650   1120.568   1051.749  0.000908 2031
  22.310   1107.980   1131.781   1061.792  0.000903 2032
  22.320   1139.000   1148.036   1077.597  0.000878 2033
  22.330   1180.490   1174.298   1104.346  0.000847 2034
  22.340   1260.420   1222.816   1154.310  0.000793 2035
  22.350   1351.280   1325.101   1258.865  0.000740 2036
  22.360   1524.060   1529.777   1466.319  0.000656 2037
  22.370   1527.880   1531.014   1470.467  0.000655 2038
  22.380   1234.480   1226.641   1168.835  0.000810 2039
  22.390   1125.570   1138.896   1083.418  0.000888 2040
  22.400   1096.290   1106.043   1052.307  0.000912 2041
  22.410   1079.130   1090.032   1037.347  0.000927 2042
  22.420   1078.350   1081.214   1028.792  0.000927 2043
  22.430   1080.580   1076.344   1023.297  0.000925 2044
  22.440   1090.390   1074.142   1019.458  0.000917 2045
  22.450   1088.420   1074.143   1016.601  0.000919 2046
  22.460   1100.240   1076.135   1014.364  0.000909 2047
  22.470   1100.400   1080.134   1012.541  0.000909 2048
  22.480   1115.060   1086.196   1011.005  0.000897 2049
  22.490   1121.920   1094.327   1009.677  0.000891 2050
  22.500   1137.800   1104.450   1008.501  0.000879 2051
  22.510   1142.420   1116.164   1007.442  0.000875 2052
  22.520   1158.750   1128.719   1006.472  0.000863 2053
  22.530   1157.100   1140.810   1005.573  0.000864 2054
  22.540   1171.630   1150.746   1004.731  0.000854 2055
  22.550   1173.380   1156.759   1003.934  0.000852 2056
  22.560   1178.680   1157.619   1003.175  0.000848 2057
  22.570   1169.000   1153.179   1002.448  0.000855 2058
  22.580   1167.160   1144.509   1001.747  0.000857 2059
  22.590   1151.000   1133.440   1001.069  0.000869 2060
  22.600   1154.430   1121.855   1000.410  0.000866 2061
  22.610   1137.550   1111.251    999.767  0.000879 2062
  22.620   1137.440   1102.544    999.138  0.000879 2063
  22.630   1129.440   1096.083    998.523  0.000885 2064
  22.640   1129.780   1091.729    997.918  0.000885 2065
  22.650   1118.980   1089.058    997.323  0.000894 2066
  22.660   1130.090   1087.365    996.737  0.000885 2067
  22.670   1119.970   1085.820    996.159  0.000893 2068
  22.680   1120.340   1083.618    995.588  0.000893 2069
  22.690   1114.000   1080.256    995.023  0.000898 2070
  22.700   1109.670   1075.643    994.464  0.000901 2071
  22.710   1093.350   1070.053    993.910  0.000915 2072
  22.720   1096.390   1063.954    993.361  0.000912 2073
  22.730   1089.620   1057.864    992.816  0.000918 2074
  22.740   1084.110   1052.175    992.276  0.000922 2075
  22.750   1071.580   1047.149    991.739  0.000933 2076
  22.760   1070.430   1042.974    991.205  0.000934 2077
  22.770   1057.830   1039.689    990.675  0.000945 2078
  22.780   1062.180   1037.322    990.148  0.000941 2079
  22.790   1057.980   1035.811    989.624  0.000945 2080
  22.800   1062.690   1035.083    989.103  0.000941 2081
  22.810   1053.750   1035.014    988.584  0.000949 2082
  22.820   1055.830   1035.471    988.067  0.000947 2083
  22.830   1049.550   1036.286    987.552  0.000953 2084
  22.840   1053.100   1036.616    986.392  0.000950 2085
  22.850   1052.480   1037.631    985.903  0.000950 2086
  22.860   1056.200   1038.561    985.414  0.000947 2087
  22.870   1050.660   1039.336    984.927  0.000952 2088
  22.880   1052.880   1039.991    984.439  0.000950 2089
  22.890   1047.290   1040.601    983.953  0.000955 2090
  22.900   1049.140   1041.265    983.467  0.000953 2091
  22.910   1052.080   1042.076    982.982  0.000950 2092
  22.920   1055.570   1043.045    982.498  0.000947 2093
  22.930   1049.320   1044.137    982.014  0.000953 2094
  22.940   1054.120   1045.232    981.531  0.000949 2095
  22.950   1047.200   1046.115    981.048  0.000955 2096
  22.960   1052.080   1046.578    980.566  0.000950 2097
  22.970   1045.500   1046.467    980.085  0.000956 2098
  22.980   1051.970   1045.722    979.604  0.000951 2099
  22.990   1049.570   1044.427    979.124  0.000953 2100
  23.000   1055.410   1042.821    978.644  0.000947 2101
  23.010   1048.250   1041.225    978.164  0.000954 2102
  23.020   1052.460   1039.906    977.686  0.000950 2103
  23.030   1046.280   1039.195    977.207  0.000956 2104
  23.040   1054.290   1039.336    976.729  0.000949 2105
  23.050   1050.660   1040.590    976.252  0.000952 2106
  23.060   1057.020   1043.182    975.775  0.000946 2107
  23.070   1054.530   1047.306    975.298  0.000948 2108
  23.080   1072.500   1053.170    974.822  0.000932 2109
  23.090   1078.690   1060.963    974.347  0.000927 2110
  23.100   1098.810   1070.811    973.872  0.000910 2111
  23.110   1103.920   1082.837    973.397  0.000906 2112
  23.120   1119.100   1097.039    972.922  0.000894 2113
  23.130   1126.010   1113.267    972.448  0.000888 2114
  23.140   1150.400   1131.057    971.975  0.000869 2115
  23.150   1165.370   1149.703    971.501  0.000858 2116
  23.160   1182.980   1168.126    971.028  0.000845 2117
  23.170   1185.710   1184.878    970.556  0.000843 2118
  23.180   1199.620   1198.297    970.084  0.000834 2119
  23.190   1187.540   1206.844    969.612  0.000842 2120
  23.200   1190.350   1209.561    969.140  0.000840 2121
  23.210   1180.390   1206.495    968.669  0.000847 2122
  23.220   1176.100   1198.729    968.199  0.000850 2123
  23.230   1162.750   1188.094    967.728  0.000860 2124
  23.240   1158.580   1176.463    967.258  0.000863 2125
  23.250   1143.450   1165.287    966.788  0.000875 2126
  23.260   1142.980   1155.371    966.319  0.000875 2127
  23.270   1135.900   1146.824    965.850  0.000880 2128
  23.280   1137.720   1139.416    965.381  0.000879 2129
  23.290   1125.110   1132.687    964.912  0.000889 2130
  23.300   1124.840   1126.282    964.444  0.000889 2131
  23.310   1104.760   1120.054    963.977  0.000905 2132
  23.320   1108.190   1114.139    963.509  0.000902 2133
  23.330   1102.820   1108.759    963.042  0.000907 2134
  23.340   1100.390   1104.189    962.575  0.000909 2135
  23.350   1091.570   1100.573    962.109  0.000916 2136
  23.360   1090.300   1097.852    961.643  0.000917 2137
  23.370   1078.760   1095.750    961.177  0.000927 2138
  23.380   1082.950   1093.836    960.711  0.000923 2139
  23.390   1077.510   1091.639    960.246  0.000928 2140
  23.400   1078.190   1088.835    959.782  0.000927 2141
  23.410   1065.830   1085.259    959.317  0.000938 2142
  23.420   1065.900   1081.042    958.853  0.000938 2143
  23.430   1054.660   1076.456    958.389  0.000948 2144
  23.440   1059.480   1071.868    957.926  0.000944 2145
  23.450   1049.410   1067.604    957.463  0.000953 2146
  23.460   1054.180   1063.851    957.001  0.000949 2147
  23.470   1049.550   1060.737    956.539  0.000953 2148
  23.480   1054.980   1058.250    956.077  0.000948 2149
  23.490   1042.090   1056.303    955.615  0.000960 2150
  23.500   1050.140   1054.750    955.154  0.000952 2151
  23.510   1049.750   1053.426    954.694  0.000953 2152
  23.520   1053.110   1052.167    954.234  0.000950 2153
  23.530   1051.970   1050.860    953.774  0.000951 2154
  23.540   1057.020   1049.376    953.315  0.000946 2155
  23.550   1048.560   1047.600    952.856  0.000954 2156
  23.560   1047.100   1045.357    952.398  0.000955 2157
  23.570   1040.820   1042.575    951.940  0.000961 2158
  23.580   1040.420   1039.261    951.483  0.000961 2159
  23.590   1035.490   1035.526    951.026  0.000966 2160
  23.600   1037.770   1031.555    950.569  0.000964 2161
  23.610   1024.790   1027.560    950.114  0.000976 2162
  23.620   1031.860   1023.751    949.658  0.000969 2163
  23.630   1028.330   1020.313    949.204  0.000972 2164
  23.640   1026.280   1017.436    948.749  0.000974 2165
  23.650   1024.670   1015.264    948.296  0.000976 2166
  23.660   1024.830   1013.880    947.843  0.000976 2167
  23.670   1014.420   1013.351    947.390  0.000986 2168
  23.680   1022.770   1013.716    946.938  0.000978 2169
  23.690   1020.710   1014.989    946.487  0.000980 2170
  23.700   1031.450   1017.166    946.036  0.000970 2171
  23.710   1028.870   1020.206    945.586  0.000972 2172
  23.720   1035.910   1024.051    945.113  0.000965 2173
  23.730   1033.750   1028.678    944.664  0.000967 2174
  23.740   1046.450   1033.915    944.216  0.000956 2175
  23.750   1045.600   1039.625    943.769  0.000956 2176
  23.760   1056.520   1045.598    943.322  0.000947 2177
  23.770   1056.320   1051.572    942.876  0.000947 2178
  23.780   1067.520   1057.275    942.431  0.000937 2179
  23.790   1064.670   1062.539    941.986  0.000939 2180
  23.800   1072.890   1067.366    941.543  0.000932 2181
  23.810   1072.400   1071.991    941.100  0.000932 2182
  23.820   1081.250   1076.839    940.658  0.000925 2183
  23.830   1080.390   1082.409    940.216  0.000926 2184
  23.840   1090.830   1089.169    939.776  0.000917 2185
  23.850   1091.290   1097.535    939.336  0.000916 2186
  23.860   1104.670   1107.757    938.897  0.000905 2187
  23.870   1112.320   1119.918    938.459  0.000899 2188
  23.880   1126.790   1133.871    938.022  0.000887 2189
  23.890   1136.750   1149.113    937.585  0.000880 2190
  23.900   1153.100   1164.877    937.150  0.000867 2191
  23.910   1152.910   1180.103    936.715  0.000867 2192
  23.920   1172.420   1193.529    936.282  0.000853 2193
  23.930   1177.400   1203.886    935.849  0.000849 2194
  23.940   1182.840   1210.075    935.417  0.000845 2195
  23.950   1177.850   1211.390    934.986  0.000849 2196
  23.960   1181.320   1207.639    934.557  0.000847 2197
  23.970   1159.250   1199.198    934.128  0.000863 2198
  23.980   1160.040   1186.908    933.700  0.000862 2199
  23.990   1146.750   1171.966    933.273  0.000872 2200
  24.000   1136.080   1155.628    932.847  0.000880 2201
  24.010   1118.680   1138.991    932.423  0.000894 2202
  24.020   1103.130   1122.868    931.999  0.000907 2203
  24.030   1082.580   1107.725    931.576  0.000924 2204
  24.040   1075.520   1093.799    931.155  0.000930 2205
  24.050   1063.530   1081.092    930.734  0.000940 2206
  24.060   1059.400   1069.563    930.315  0.000944 2207
  24.070   1041.550   1059.082    929.897  0.000960 2208
  24.080   1037.840   1049.523    929.480  0.000964 2209
  24.090   1025.130   1040.805    929.064  0.000975 2210
  24.100   1026.620   1032.850    928.649  0.000974 2211
  24.110   1022.680   1025.628    928.235  0.000978 2212
  24.120   1020.910   1019.178    927.823  0.000980 2213
  24.130   1011.620   1013.513    927.412  0.000989 2214
  24.140   1010.660   1008.622    927.002  0.000989 2215
  24.150   1000.260   1004.498    926.593  0.001000 2216
  24.160    999.380   1001.057    926.185  0.001001 2217
  24.170    995.470    998.240    925.779  0.001005 2218
  24.180   1001.030    995.935    925.374  0.000999 2219
  24.190    991.230    994.036    924.970  0.001009 2220
  24.200    994.510    992.441    924.568  0.001006 2221
  24.210    985.510    991.077    924.167  0.001015 2222
  24.220    990.260    989.866    923.767  0.001010 2223
  24.230    985.570    988.820    923.368  0.001015 2224
  24.240    988.230    987.987    922.971  0.001012 2225
  24.250    984.260    987.421    922.575  0.001016 2226
  24.260    983.480    987.150    922.180  0.001017 2227
  24.270    977.830    987.143    921.787  0.001023 2228
  24.280    982.380    987.255    921.395  0.001018 2229
  24.290    983.160    987.283    921.005  0.001017 2230
  24.300    985.480    986.998    920.616  0.001015 2231
  24.310    979.710    986.137    920.228  0.001021 2232
  24.320    982.530    984.581    919.842  0.001018 2233
  24.330    973.530    982.267    919.457  0.001027 2234
  24.340    977.390    979.331    919.073  0.001023 2235
  24.350    971.290    975.969    918.691  0.001030 2236
  24.360    973.320    972.437    918.311  0.001027 2237
  24.370    964.680    969.005    917.932  0.001037 2238
  24.380    966.650    965.880    917.554  0.001035 2239
  24.390    953.750    963.192    917.178  0.001048 2240
  24.400    959.900    960.989    916.803  0.001042 2241
  24.410    958.290    959.276    916.430  0.001044 2242
  24.420    958.230    957.964    916.058  0.001044 2243
  24.430    952.590    956.964    915.688  0.001050 2244
  24.440    956.680    956.149    915.319  0.001045 2245
  24.450    952.350    955.382    914.952  0.001050 2246
  24.460    955.600    954.583    914.586  0.001046 2247
  24.470    960.130    953.717    914.222  0.001042 2248
  24.480    963.470    952.802    913.860  0.001038 2249
  24.490    958.560    951.910    913.498  0.001043 2250
  24.500    959.250    951.151    913.139  0.001042 2251
  24.510    952.540    950.601    912.781  0.001050 2252
  24.520    957.520    950.375    912.425  0.001044 2253
  24.530    953.460    950.555    912.070  0.001049 2254
  24.540    963.080    951.186    911.717  0.001038 2255
  24.550    956.630    952.349    911.365  0.001045 2256
  24.560    959.950    954.053    911.015  0.001042 2257
  24.570    959.230    956.392    910.666  0.001043 2258
  24.580    967.120    959.488    910.320  0.001034 2259
  24.590    970.840    963.475    909.974  0.001030 2260
  24.600    976.450    968.474    909.631  0.001024 2261
  24.610    978.610    974.610    909.289  0.001022 2262
  24.620    991.500    981.926    908.948  0.001009 2263
  24.630    992.990    990.383    908.609  0.001007 2264
  24.640   1005.130    999.809    908.272  0.000995 2265
  24.650   1012.190   1009.854    907.937  0.000988 2266
  24.660   1027.750   1020.094    907.603  0.000973 2267
  24.670   1027.590   1029.914    907.271  0.000973 2268
  24.680   1039.730   1038.831    906.940  0.000962 2269
  24.690   1040.630   1046.551    906.611  0.000961 2270
  24.700   1054.150   1053.019    906.284  0.000949 2271
  24.710   1055.680   1058.435    905.959  0.000947 2272
  24.720   1068.980   1063.122    905.635  0.000935 2273
  24.730   1066.620   1067.355    905.312  0.000938 2274
  24.740   1074.710   1071.270    904.992  0.000930 2275
  24.750   1070.920   1074.913    904.673  0.000934 2276
  24.760   1074.650   1078.165    904.356  0.000931 2277
  24.770   1076.810   1080.721    904.040  0.000929 2278
  24.780   1077.910   1082.330    903.727  0.000928 2279
  24.790   1075.470   1082.798    903.415  0.000930 2280
  24.800   1074.600   1082.208    903.104  0.000931 2281
  24.810   1067.630   1081.005    902.795  0.000937 2282
  24.820   1072.070   1079.836    902.488  0.000933 2283
  24.830   1066.550   1079.242    902.183  0.000938 2284
  24.840   1072.540   1079.539    901.880  0.000932 2285
  24.850   1065.370   1080.740    901.578  0.000939 2286
  24.860   1073.500   1082.513    901.278  0.000932 2287
  24.870   1061.180   1084.396    900.979  0.000942 2288
  24.880   1067.740   1085.814    900.683  0.000937 2289
  24.890   1066.630   1086.265    900.388  0.000938 2290
  24.900   1069.070   1085.458    900.094  0.000935 2291
  24.910   1063.640   1083.272    899.803  0.000940 2292
  24.920   1064.750   1079.824    899.513  0.000939 2293
  24.930   1044.410   1075.395    899.225  0.000957 2294
  24.940   1049.690   1070.371    898.939  0.000953 2295
  24.950   1050.210   1065.124    898.654  0.000952 2296
  24.960   1048.670   1059.944    898.371  0.000954 2297
  24.970   1041.860   1055.085    898.090  0.000960 2298
  24.980   1036.120   1050.646    897.811  0.000965 2299
  24.990   1028.390   1046.603    897.533  0.000972 2300
  25.000   1033.980   1042.819    897.257  0.000967 2301
  25.010   1027.310   1039.078    896.983  0.000973 2302
  25.020   1030.980   1035.104    896.711  0.000970 2303
  25.030   1015.970   1030.672    896.440  0.000984 2304
  25.040   1021.130   1025.652    896.171  0.000979 2305
  25.050   1007.220   1020.063    895.904  0.000993 2306
  25.060   1010.730   1013.967    895.639  0.000989 2307
  25.070   1002.520   1007.521    895.375  0.000997 2308
  25.080    996.770   1000.830    895.113  0.001003 2309
  25.090    989.980    994.013    894.853  0.001010 2310
  25.100    982.260    987.216    894.595  0.001018 2311
  25.110    968.880    980.587    894.338  0.001032 2312
  25.120    970.070    974.346    894.084  0.001031 2313
  25.130    958.430    968.680    893.831  0.001043 2314
  25.140    962.750    963.803    893.579  0.001039 2315
  25.150    953.830    959.849    893.330  0.001048 2316
  25.160    953.330    956.923    893.082  0.001049 2317
  25.170    945.640    955.089    892.836  0.001057 2318
  25.180    949.280    954.325    892.592  0.001053 2319
  25.190    949.690    954.556    892.349  0.001053 2320
  25.200    954.440    955.600    892.109  0.001048 2321
  25.210    951.490    957.235    891.870  0.001051 2322
  25.220    958.920    959.128    891.633  0.001043 2323
  25.230    952.770    961.005    891.397  0.001050 2324
  25.240    959.440    962.601    891.164  0.001042 2325
  25.250    963.260    963.845    890.932  0.001038 2326
  25.260    966.590    964.807    890.702  0.001035 2327
  25.270    965.590    965.714    890.473  0.001036 2328
  25.280    970.870    966.842    890.247  0.001030 2329
  25.290    971.030    968.330    890.022  0.001030 2330
  25.300    977.530    970.188    889.799  0.001023 2331
  25.310    978.860    972.184    889.578  0.001022 2332
  25.320    983.490    974.045    889.358  0.001017 2333
  25.330    979.850    975.514    889.141  0.001021 2334
  25.340    981.500    976.559    888.925  0.001019 2335
  25.350    972.640    977.296    888.711  0.001028 2336
  25.360    981.390    977.945    888.498  0.001019 2337
  25.370    977.400    978.633    888.288  0.001023 2338
  25.380    982.940    979.443    888.079  0.001017 2339
  25.390    981.010    980.404    887.872  0.001019 2340
  25.400    984.190    981.503    887.667  0.001016 2341
  25.410    978.430    982.767    887.463  0.001022 2342
  25.420    984.460    984.342    887.261  0.001016 2343
  25.430    991.760    986.354    887.061  0.001008 2344
  25.440    997.780    988.997    886.863  0.001002 2345
  25.450    994.560    992.470    886.667  0.001005 2346
  25.460   1001.480    996.858    886.472  0.000999 2347
  25.470   1005.180   1002.226    886.279  0.000995 2348
  25.480   1016.410   1008.539    886.088  0.000984 2349
  25.490   1018.930   1015.750    885.899  0.000981 2350
  25.500   1034.410   1023.771    885.711  0.000967 2351
  25.510   1033.440   1032.531    885.525  0.000968 2352
  25.520   1050.230   1041.936    885.341  0.000952 2353
  25.530   1053.150   1051.807    885.159  0.000950 2354
  25.540   1071.060   1061.846    884.978  0.000934 2355
  25.550   1073.090   1071.526    884.800  0.000932 2356
  25.560   1081.090   1080.111    884.623  0.000925 2357
  25.570   1078.890   1086.765    884.447  0.000927 2358
  25.580   1087.470   1090.663    884.274  0.000920 2359
  25.590   1082.110   1091.254    884.102  0.000924 2360
  25.600   1076.850   1088.389    883.932  0.000929 2361
  25.610   1074.740   1082.432    883.764  0.000930 2362
  25.620   1070.590   1074.101    883.598  0.000934 2363
  25.630   1055.240   1064.314    883.433  0.000948 2364
  25.640   1044.530   1053.843    883.270  0.000957 2365
  25.650   1025.610   1043.247    883.109  0.000975 2366
  25.660   1022.600   1032.827    882.950  0.000978 2367
  25.670   1013.090   1022.694    882.792  0.000987 2368
  25.680   1003.560   1012.913    882.636  0.000996 2369
  25.690    992.460   1003.536    882.482  0.001008 2370
  25.700    994.440    994.703    882.330  0.001006 2371
  25.710    981.770    986.560    882.179  0.001019 2372
  25.720    985.080    979.249    882.030  0.001015 2373
  25.730    977.310    972.864    881.883  0.001023 2374
  25.740    974.420    967.440    881.737  0.001026 2375
  25.750    973.630    962.924    881.594  0.001027 2376
  25.760    966.710    959.249    881.452  0.001034 2377
  25.770    961.580    956.320    881.312  0.001040 2378
  25.780    958.760    954.064    881.173  0.001043 2379
  25.790    951.780    952.400    881.036  0.001051 2380
  25.800    958.980    951.387    880.901  0.001043 2381
  25.810    953.330    951.006    880.768  0.001049 2382
  25.820    955.630    951.360    880.636  0.001046 2383
  25.830    949.450    952.550    880.507  0.001053 2384
  25.840    952.220    954.551    880.379  0.001050 2385
  25.850    951.600    957.291    880.252  0.001051 2386
  25.860    956.770    960.497    880.128  0.001045 2387
  25.870    953.540    963.789    880.005  0.001049 2388
  25.880    959.310    966.691    879.883  0.001042 2389
  25.890    946.390    968.721    879.764  0.001057 2390
  25.900    955.880    969.453    879.646  0.001046 2391
  25.910    948.020    968.729    879.530  0.001055 2392
  25.920    951.580    966.599    879.416  0.001051 2393
  25.930    944.440    963.376    879.303  0.001059 2394
  25.940    945.730    959.566    879.192  0.001057 2395
  25.950    934.010    955.703    879.083  0.001071 2396
  25.960    942.990    952.253    878.975  0.001060 2397
  25.970    937.910    949.567    878.869  0.001066 2398
  25.980    938.810    947.917    878.765  0.001065 2399
  25.990    932.830    947.434    878.662  0.001072 2400
  26.000    941.780    948.173    878.561  0.001062 2401
  26.010    939.610    950.124    878.462  0.001064 2402
  26.020    946.220    953.234    878.365  0.001057 2403
  26.030    953.720    957.371    878.269  0.001049 2404
  26.040    960.300    962.386    878.175  0.001041 2405
  26.050    964.400    968.078    878.082  0.001037 2406
  26.060    973.980    974.239    877.991  0.001027 2407
  26.070    976.290    980.570    877.902  0.001024 2408
  26.080    983.550    986.845    877.814  0.001017 2409
  26.090    986.050    992.765    877.728  0.001014 2410
  26.100    996.550    997.885    877.644  0.001003 2411
  26.110    997.760   1001.755    877.562  0.001002 2412
  26.120   1000.780   1003.923    877.481  0.000999 2413
  26.130    990.970   1004.097    877.401  0.001009 2414
  26.140    991.250   1002.411    877.323  0.001009 2415
  26.150    987.190    999.474    877.247  0.001013 2416
  26.160    983.940    996.103    877.173  0.001016 2417
  26.170    981.220    993.067    877.100  0.001019 2418
  26.180    984.280    990.922    877.029  0.001016 2419
  26.190    972.710    989.897    876.959  0.001028 2420
  26.200    982.680    990.032    876.891  0.001018 2421
  26.210    986.090    991.172    876.824  0.001014 2422
  26.220    989.350    993.058    876.759  0.001011 2423
  26.230    991.860    995.447    876.696  0.001008 2424
  26.240    997.120    998.117    876.634  0.001003 2425
  26.250    991.320   1000.905    876.574  0.001009 2426
  26.260    997.030   1003.708    876.515  0.001003 2427
  26.270    998.640   1006.369    876.418  0.001001 2428
  26.280   1007.690   1008.853    876.363  0.000992 2429
  26.290   1003.270   1010.978    876.309  0.000997 2430
  26.300   1010.000   1012.551    876.256  0.000990 2431
  26.310    999.910   1013.362    876.206  0.001000 2432
  26.320   1006.400   1013.338    876.156  0.000994 2433
  26.330   1003.390   1012.505    876.108  0.000997 2434
  26.340   1005.490   1011.059    876.062  0.000995 2435
  26.350    999.520   1009.351    876.017  0.001000 2436
  26.360   1006.280   1007.733    875.974  0.000994 2437
  26.370   1001.350   1006.646    875.932  0.000999 2438
  26.380   1005.690   1006.430    875.891  0.000994 2439
  26.390   1005.680   1007.298    875.853  0.000994 2440
  26.400   1012.890   1009.325    875.815  0.000987 2441
  26.410   1005.170   1012.555    875.779  0.000995 2442
  26.420   1018.190   1016.725    875.744  0.000982 2443
  26.430   1013.220   1021.555    875.711  0.000987 2444
  26.440   1022.950   1026.674    875.680  0.000978 2445
  26.450   1021.990   1031.735    875.649  0.000978 2446
  26.460   1026.100   1036.397    875.621  0.000975 2447
  26.470   1028.470   1040.410    875.593  0.000972 2448
  26.480   1031.080   1043.542    875.567  0.000970 2449
  26.490   1023.550   1045.568    875.542  0.000977 2450
  26.500   1026.700   1046.343    875.519  0.000974 2451
  26.510   1028.540   1045.731    875.497  0.000972 2452
  26.520   1028.570   1043.757    875.477  0.000972 2453
  26.530   1019.040   1040.641    875.458  0.000981 2454
  26.540   1021.910   1036.799    875.440  0.000979 2455
  26.550   1012.330   1032.734    875.423  0.000988 2456
  26.560   1010.600   1028.906    875.408  0.000990 2457
  26.570   1008.280   1025.631    875.394  0.000992 2458
  26.580   1014.780   1023.043    875.382  0.000985 2459
  26.590   1008.440   1021.140    875.370  0.000992 2460
  26.600   1008.860   1019.801    875.360  0.000991 2461
  26.610   1004.920   1018.902    875.352  0.000995 2462
  26.620   1009.130   1018.353    875.344  0.000991 2463
  26.630   1006.880   1018.039    875.338  0.000993 2464
  26.640   1011.820   1017.869    875.333  0.000988 2465
  26.650   1012.390   1017.786    875.329  0.000988 2466
  26.660   1019.570   1017.686    875.327  0.000981 2467
  26.670   1013.620   1017.557    875.326  0.000987 2468
  26.680   1015.460   1017.379    875.325  0.000985 2469
  26.690   1013.500   1017.201    875.326  0.000987 2470
  26.700   1015.220   1017.106    875.329  0.000985 2471
  26.710   1008.760   1017.246    875.332  0.000991 2472
  26.720   1014.650   1017.766    875.337  0.000986 2473
  26.730   1006.950   1018.839    875.342  0.000993 2474
  26.740   1015.790   1020.524    875.349  0.000984 2475
  26.750   1009.160   1022.827    875.357  0.000991 2476
  26.760   1020.440   1025.525    875.366  0.000980 2477
  26.770   1016.050   1028.262    875.376  0.000984 2478
  26.780   1023.520   1030.561    875.387  0.000977 2479
  26.790   1010.000   1031.955    875.399  0.000990 2480
  26.800   1019.720   1032.085    875.412  0.000981 2481
  26.810   1021.850   1030.865    875.427  0.000979 2482
  26.820   1019.180   1028.473    875.442  0.000981 2483
  26.830   1014.260   1025.295    875.458  0.000986 2484
  26.840   1015.870   1021.802    875.475  0.000984 2485
  26.850   1005.570   1018.449    875.494  0.000994 2486
  26.860   1006.700   1015.598    875.513  0.000993 2487
  26.870   1006.270   1013.523    875.533  0.000994 2488
  26.880   1009.990   1012.353    875.554  0.000990 2489
  26.890   1004.490   1012.120    875.576  0.000996 2490
  26.900   1013.190   1012.707    875.599  0.000987 2491
  26.910   1004.380   1013.931    875.622  0.000996 2492
  26.920   1009.860   1015.434    875.647  0.000990 2493
  26.930   1010.410   1016.851    875.672  0.000990 2494
  26.940   1016.500   1017.797    875.699  0.000984 2495
  26.950   1009.050   1017.928    875.726  0.000991 2496
  26.960   1007.650   1017.023    875.754  0.000992 2497
  26.970    999.410   1015.019    875.782  0.001001 2498
  26.980   1002.580   1012.071    875.812  0.000997 2499
  26.990    993.700   1008.405    875.842  0.001006 2500
  27.000    991.980   1004.413    875.873  0.001008 2501
  27.010    988.850   1000.501    875.904  0.001011 2502
  27.020    983.520    997.039    875.937  0.001017 2503
  27.030    977.850    994.325    875.970  0.001023 2504
  27.040    987.200    992.532    876.004  0.001013 2505
  27.050    982.570    991.705    876.038  0.001018 2506
  27.060    992.420    991.813    876.073  0.001008 2507
  27.070    987.850    992.818    876.108  0.001012 2508
  27.080    994.710    994.617    876.145  0.001005 2509
  27.090    987.710    997.148    876.182  0.001012 2510
  27.100    999.150   1000.322    876.219  0.001001 2511
  27.110    997.810   1004.070    876.257  0.001002 2512
  27.120   1008.000   1008.217    876.295  0.000992 2513
  27.130   1009.050   1012.567    876.334  0.000991 2514
  27.140   1017.240   1016.855    876.374  0.000983 2515
  27.150   1014.440   1020.729    876.414  0.000986 2516
  27.160   1022.700   1023.832    876.454  0.000978 2517
  27.170   1020.740   1025.847    876.495  0.000980 2518
  27.180   1030.080   1026.549    876.536  0.000971 2519
  27.190   1016.930   1025.854    876.578  0.000983 2520
  27.200   1018.190   1023.789    876.620  0.000982 2521
  27.210   1004.250   1020.543    876.662  0.000996 2522
  27.220   1007.730   1016.377    876.705  0.000992 2523
  27.230   1000.580   1011.634    876.748  0.000999 2524
  27.240    999.640   1006.584    876.791  0.001000 2525
  27.250    993.120   1001.477    876.835  0.001007 2526
  27.260    990.440    996.470    876.879  0.001010 2527
  27.270    981.360    991.631    876.923  0.001019 2528
  27.280    982.390    986.951    876.967  0.001018 2529
  27.290    980.920    982.417    877.012  0.001019 2530
  27.300    974.390    977.993    877.057  0.001026 2531
  27.310    973.060    973.690    877.102  0.001028 2532
  27.320    970.730    969.547    877.147  0.001030 2533
  27.330    960.830    965.713    877.192  0.001041 2534
  27.340    964.640    962.275    877.237  0.001037 2535
  27.350    957.200    959.373    877.283  0.001045 2536
  27.360    959.860    957.127    877.328  0.001042 2537
  27.370    955.810    955.655    877.374  0.001046 2538
  27.380    954.540    955.039    877.420  0.001048 2539
  27.390    950.790    955.378    877.465  0.001052 2540
  27.400    961.240    956.797    877.511  0.001040 2541
  27.410    967.420    959.358    877.557  0.001034 2542
  27.420    972.250    963.096    877.602  0.001029 2543
  27.430    970.930    968.008    877.648  0.001030 2544
  27.440    982.040    973.980    877.693  0.001018 2545
  27.450    981.520    980.842    877.739  0.001019 2546
  27.460    996.150    988.244    877.784  0.001004 2547
  27.470    999.310    995.693    877.829  0.001001 2548
  27.480   1008.340   1002.589    877.874  0.000992 2549
  27.490   1004.800   1008.308    877.919  0.000995 2550
  27.500   1009.850   1012.336    877.963  0.000990 2551
  27.510   1002.520   1014.388    878.008  0.000997 2552
  27.520   1007.700   1014.454    878.052  0.000992 2553
  27.530    997.250   1012.903    878.096  0.001003 2554
  27.540   1002.390   1010.184    878.139  0.000998 2555
  27.550    990.510   1006.915    878.182  0.001010 2556
  27.560    993.330   1003.518    878.225  0.001007 2557
  27.570    985.060   1000.276    878.268  0.001015 2558
  27.580    988.360    997.274    878.310  0.001012 2559
  27.590    986.540    994.453    878.352  0.001014 2560
  27.600    983.230    991.801    878.394  0.001017 2561
  27.610    975.070    989.224    878.435  0.001026 2562
  27.620    980.010    986.781    878.475  0.001020 2563
  27.630    971.010    984.518    878.515  0.001030 2564
  27.640    977.180    982.572    878.555  0.001023 2565
  27.650    977.270    981.000    878.594  0.001023 2566
  27.660    976.350    979.817    878.633  0.001024 2567
  27.670    975.210    978.911    878.671  0.001025 2568
  27.680    973.280    978.100    878.709  0.001027 2569
  27.690    965.090    977.149    878.746  0.001036 2570
  27.700    970.390    975.832    878.783  0.001031 2571
  27.710    962.810    973.989    878.819  0.001039 2572
  27.720    968.960    971.550    878.854  0.001032 2573
  27.730    961.930    968.627    878.889  0.001040 2574
  27.740    965.830    965.385    878.923  0.001035 2575
  27.750    956.060    962.067    878.956  0.001046 2576
  27.760    955.580    958.826    878.989  0.001046 2577
  27.770    953.310    955.759    879.020  0.001049 2578
  27.780    949.090    952.892    879.052  0.001054 2579
  27.790    941.690    950.197    879.082  0.001062 2580
  27.800    945.830    947.639    879.112  0.001057 2581
  27.810    940.130    945.203    879.141  0.001064 2582
  27.820    939.030    942.925    879.169  0.001065 2583
  27.830    938.550    940.835    879.196  0.001065 2584
  27.840    938.000    938.989    879.223  0.001066 2585
  27.850    935.590    937.401    879.248  0.001069 2586
  27.860    933.000    936.041    879.273  0.001072 2587
  27.870    924.230    934.832    879.297  0.001082 2588
  27.880    929.580    933.689    879.320  0.001076 2589
  27.890    925.630    932.555    879.342  0.001080 2590
  27.900    927.310    931.445    879.363  0.001078 2591
  27.910    924.090    930.449    879.383  0.001082 2592
  27.920    926.970    929.670    879.403  0.001079 2593
  27.930    919.070    929.231    879.421  0.001088 2594
  27.940    929.290    929.210    879.438  0.001076 2595
  27.950    927.930    929.642    879.455  0.001078 2596
  27.960    935.560    930.518    879.470  0.001069 2597
  27.970    928.860    931.802    879.484  0.001077 2598
  27.980    937.850    933.423    879.497  0.001066 2599
  27.990    934.630    935.312    879.509  0.001070 2600
  28.000    940.200    937.404    879.520  0.001064 2601
  28.010    941.630    939.587    879.530  0.001062 2602
  28.020    946.860    941.825    879.539  0.001056 2603
  28.030    941.730    944.045    879.547  0.001062 2604
  28.040    953.170    946.255    879.553  0.001049 2605
  28.050    947.660    948.543    879.558  0.001055 2606
  28.060    955.180    950.975    879.563  0.001047 2607
  28.070    956.310    953.602    879.566  0.001046 2608
  28.080    961.730    956.517    879.567  0.001040 2609
  28.090    961.800    959.730    879.568  0.001040 2610
  28.100    969.820    963.202    879.567  0.001031 2611
  28.110    968.230    966.818    879.566  0.001033 2612
  28.120    972.140    970.388    879.562  0.001029 2613
  28.130    977.020    973.643    879.558  0.001024 2614
  28.140    979.480    976.309    879.552  0.001021 2615
  28.150    980.620    978.135    879.545  0.001020 2616
  28.160    982.640    978.955    879.537  0.001018 2617
  28.170    978.230    978.726    879.528  0.001022 2618
  28.180    982.260    977.556    879.517  0.001018 2619
  28.190    984.140    975.684    879.505  0.001016 2620
  28.200    981.740    973.436    879.491  0.001019 2621
  28.210    976.390    971.108    879.476  0.001024 2622
  28.220    979.140    968.987    879.460  0.001021 2623
  28.230    969.530    967.259    879.442  0.001031 2624
  28.240    975.960    966.027    879.423  0.001025 2625
  28.250    974.550    965.306    879.402  0.001026 2626
  28.260    976.800    965.038    879.380  0.001024 2627
  28.270    968.670    965.118    879.357  0.001032 2628
  28.280    976.000    965.410    879.332  0.001025 2629
  28.290    965.350    965.767    879.306  0.001036 2630
  28.300    972.100    966.051    879.278  0.001029 2631
  28.310    969.130    966.140    879.249  0.001032 2632
  28.320    973.990    965.936    879.218  0.001027 2633
  28.330    967.060    965.408    879.186  0.001034 2634
  28.340    972.310    964.578    879.152  0.001028 2635
  28.350    963.370    963.536    879.117  0.001038 2636
  28.360    965.650    962.413    879.080  0.001036 2637
  28.370    963.380    961.400    879.042  0.001038 2638
  28.380    964.590    960.617    879.002  0.001037 2639
  28.390    962.770    960.246    878.961  0.001039 2640
  28.400    963.320    960.343    878.918  0.001038 2641
  28.410    957.360    960.889    878.873  0.001045 2642
  28.420    962.990    961.852    878.827  0.001038 2643
  28.430    960.230    963.086    878.779  0.001041 2644
  28.440    967.830    964.455    878.730  0.001033 2645
  28.450    965.880    965.876    878.679  0.001035 2646
  28.460    967.980    967.260    878.626  0.001033 2647
  28.470    961.620    968.575    878.572  0.001040 2648
  28.480    970.910    969.905    878.516  0.001030 2649
  28.490    966.690    971.287    878.459  0.001034 2650
  28.500    970.280    972.781    878.399  0.001031 2651
  28.510    971.000    974.432    878.339  0.001030 2652
  28.520    972.940    976.166    878.276  0.001028 2653
  28.530    969.290    977.830    878.212  0.001032 2654
  28.540    976.610    979.322    878.146  0.001024 2655
  28.550    971.860    980.320    878.078  0.001029 2656
  28.560    971.910    980.602    878.009  0.001029 2657
  28.570    971.480    979.923    877.938  0.001029 2658
  28.580    965.720    978.127    877.865  0.001035 2659
  28.590    959.230    975.214    877.791  0.001043 2660
  28.600    955.220    971.327    877.715  0.001047 2661
  28.610    946.060    966.718    877.637  0.001057 2662
  28.620    948.100    961.771    877.557  0.001055 2663
  28.630    940.660    956.826    877.475  0.001063 2664
  28.640    938.440    952.544    877.727  0.001066 2665
  28.650    936.000    948.533    877.651  0.001068 2666
  28.660    934.510    945.294    877.574  0.001070 2667
  28.670    937.390    942.934    877.496  0.001067 2668
  28.680    934.190    941.527    877.416  0.001070 2669
  28.690    933.220    941.093    877.335  0.001072 2670
  28.700    938.860    941.620    877.253  0.001065 2671
  28.710    933.110    943.032    877.169  0.001072 2672
  28.720    940.410    945.249    877.085  0.001063 2673
  28.730    943.000    948.103    876.999  0.001060 2674
  28.740    949.980    951.417    876.912  0.001053 2675
  28.750    949.220    954.929    876.824  0.001053 2676
  28.760    956.560    958.385    876.735  0.001045 2677
  28.770    945.550    961.526    876.645  0.001058 2678
  28.780    952.700    964.199    876.555  0.001050 2679
  28.790    951.700    966.255    876.463  0.001051 2680
  28.800    962.380    967.714    876.371  0.001039 2681
  28.810    957.410    968.697    876.278  0.001044 2682
  28.820    961.290    969.342    876.184  0.001040 2683
  28.830    952.860    969.819    876.091  0.001049 2684
  28.840    961.830    970.230    875.997  0.001040 2685
  28.850    961.790    970.619    875.902  0.001040 2686
  28.860    964.240    970.951    875.808  0.001037 2687
  28.870    963.680    971.230    875.714  0.001038 2688
  28.880    970.320    971.286    875.621  0.001031 2689
  28.890    957.200    971.042    875.528  0.001045 2690
  28.900    961.890    970.432    875.437  0.001040 2691
  28.910    962.130    969.377    875.346  0.001039 2692
  28.920    966.060    967.841    875.258  0.001035 2693
  28.930    958.190    965.846    875.171  0.001044 2694
  28.940    960.650    963.422    875.087  0.001041 2695
  28.950    952.730    960.766    875.007  0.001050 2696
  28.960    956.050    958.025    874.930  0.001046 2697
  28.970    951.190    955.421    874.858  0.001051 2698
  28.980    956.840    953.140    874.792  0.001045 2699
  28.990    948.080    951.349    874.732  0.001055 2700
  29.000    952.220    950.118    874.681  0.001050 2701
  29.010    946.610    949.466    874.639  0.001056 2702
  29.020    947.710    949.324    874.610  0.001055 2703
  29.030    946.470    949.681    874.595  0.001057 2704
  29.040    950.240    950.443    874.597  0.001052 2705
  29.050    952.220    951.535    874.621  0.001050 2706
  29.060    958.570    952.944    874.671  0.001043 2707
  29.070    950.780    954.713    874.754  0.001052 2708
  29.080    959.540    956.902    874.878  0.001042 2709
  29.090    962.950    959.551    875.054  0.001038 2710
  29.100    966.530    962.697    875.298  0.001035 2711
  29.110    968.140    966.314    875.629  0.001033 2712
  29.120    968.650    970.249    876.078  0.001032 2713
  29.130    968.270    974.322    876.688  0.001033 2714
  29.140    972.830    978.256    877.522  0.001028 2715
  29.150    973.330    981.808    878.681  0.001027 2716
  29.160    979.140    984.795    880.330  0.001021 2717
  29.170    971.230    987.355    882.752  0.001030 2718
  29.180    975.550    989.954    886.470  0.001025 2719
  29.190    968.740    993.794    892.531  0.001032 2720
  29.200    980.980   1001.419    903.216  0.001019 2721
  29.210    994.010   1018.396    923.803  0.001006 2722
  29.220   1039.130   1054.191    963.431  0.000962 2723
  29.230   1070.090   1085.711    998.768  0.000935 2724
  29.240   1010.570   1033.944    950.605  0.000990 2725
  29.250    966.870    990.492    910.468  0.001034 2726
  29.260    955.250    970.157    893.047  0.001047 2727
  29.270    945.400    959.168    884.531  0.001058 2728
  29.280    950.560    952.431    879.729  0.001052 2729
  29.290    943.840    948.075    876.708  0.001060 2730
  29.300    946.710    945.343    874.644  0.001056 2731
  29.310    939.830    943.892    873.141  0.001064 2732
  29.320    947.770    943.544    871.988  0.001055 2733
  29.330    950.840    944.174    871.066  0.001052 2734
  29.340    955.610    945.711    870.303  0.001046 2735
  29.350    950.730    948.010    869.652  0.001052 2736
  29.360    959.010    950.971    869.084  0.001043 2737
  29.370    956.400    954.415    868.576  0.001046 2738
  29.380    963.730    958.160    868.116  0.001038 2739
  29.390    966.030    961.951    867.691  0.001035 2740
  29.400    972.840    965.541    867.295  0.001028 2741
  29.410    968.420    968.656    866.921  0.001033 2742
  29.420    974.090    971.012    866.565  0.001027 2743
  29.430    970.370    972.438    866.223  0.001031 2744
  29.440    975.180    972.860    865.894  0.001025 2745
  29.450    972.820    972.318    865.573  0.001028 2746
  29.460    974.620    970.931    865.261  0.001026 2747
  29.470    967.600    969.007    864.955  0.001033 2748
  29.480    971.110    966.891    864.655  0.001030 2749
  29.490    960.950    964.932    864.359  0.001041 2750
  29.500    966.490    963.488    864.067  0.001035 2751
  29.510    961.020    962.798    863.777  0.001041 2752
  29.520    968.170    963.071    863.490  0.001033 2753
  29.530    964.700    964.425    863.205  0.001037 2754
  29.540    974.470    966.907    862.922  0.001026 2755
  29.550    971.960    970.504    862.639  0.001029 2756
  29.560    978.830    975.128    862.358  0.001022 2757
  29.570    980.540    980.604    862.077  0.001020 2758
  29.580    996.480    986.764    861.797  0.001004 2759
  29.590    997.590    993.381    861.517  0.001002 2760
  29.600   1001.490   1000.170    861.237  0.000999 2761
  29.610    998.340   1006.858    860.957  0.001002 2762
  29.620   1009.160   1013.177    860.677  0.000991 2763
  29.630   1009.860   1018.850    860.397  0.000990 2764
  29.640   1021.090   1023.625    860.117  0.000979 2765
  29.650   1015.750   1027.365    859.836  0.000984 2766
  29.660   1026.190   1030.008    859.554  0.000974 2767
  29.670   1017.600   1031.612    859.272  0.000983 2768
  29.680   1025.400   1032.305    858.990  0.000975 2769
  29.690   1025.860   1032.372    858.707  0.000975 2770
  29.700   1028.100   1032.114    858.423  0.000973 2771
  29.710   1024.200   1031.826    858.138  0.000976 2772
  29.720   1031.380   1031.733    857.853  0.000970 2773
  29.730   1025.660   1031.943    857.567  0.000975 2774
  29.740   1035.470   1032.325    857.280  0.000966 2775
  29.750   1029.910   1032.585    856.993  0.000971 2776
  29.760   1035.710   1032.352    856.704  0.000966 2777
  29.770   1024.980   1031.214    856.415  0.000976 2778
  29.780   1021.170   1028.880    856.125  0.000979 2779
  29.790   1012.890   1025.206    855.834  0.000987 2780
  29.800   1008.350   1020.209    855.542  0.000992 2781
  29.810   1002.540   1014.059    855.250  0.000997 2782
  29.820    996.750   1007.013    854.957  0.001003 2783
  29.830    985.830    999.409    854.662  0.001014 2784
  29.840    982.420    991.652    854.368  0.001018 2785
  29.850    970.900    983.928    853.858  0.001030 2786
  29.860    969.650    977.031    853.567  0.001031 2787
  29.870    962.570    971.025    853.275  0.001039 2788
  29.880    960.300    966.089    852.981  0.001041 2789
  29.890    956.500    962.297    852.687  0.001045 2790
  29.900    957.840    959.576    852.392  0.001044 2791
  29.910    947.520    957.773    852.096  0.001055 2792
  29.920    952.390    956.619    851.799  0.001050 2793
  29.930    951.340    955.837    851.501  0.001051 2794
  29.940    957.240    955.064    851.203  0.001045 2795
  29.950    944.420    953.971    850.903  0.001059 2796
  29.960    945.870    952.299    850.603  0.001057 2797
  29.970    934.230    949.827    850.302  0.001070 2798
  29.980    940.230    946.490    850.000  0.001064 2799
  29.990    930.070    942.347    849.697  0.001075 2800
  30.000    930.430    937.532    849.393  0.001075 2801
  30.010    922.770    932.239    849.089  0.001084 2802
  30.020    919.650    926.681    848.784  0.001087 2803
  30.030    910.150    921.107    848.479  0.001099 2804
  30.040    910.820    915.739    848.173  0.001098 2805
  30.050    904.240    910.710    847.866  0.001106 2806
  30.060    905.250    906.157    847.559  0.001105 2807
  30.070    897.820    902.129    847.251  0.001114 2808
  30.080    897.210    898.667    846.942  0.001115 2809
  30.090    889.690    895.765    846.633  0.001124 2810
  30.100    896.430    893.409    846.323  0.001116 2811
  30.110    891.790    891.550    846.013  0.001121 2812
  30.120    896.770    890.137    845.703  0.001115 2813
  30.130    891.460    889.150    845.392  0.001122 2814
  30.140    897.820    888.542    845.080  0.001114 2815
  30.150    890.580    888.254    844.768  0.001123 2816
  30.160    895.080    888.242    844.456  0.001117 2817
  30.170    890.580    888.434    844.144  0.001123 2818
  30.180    898.970    888.731    843.831  0.001112 2819
  30.190    892.400    889.052    843.517  0.001121 2820
  30.200    895.570    889.339    843.204  0.001117 2821
  30.210    893.100    889.538    842.890  0.001120 2822
  30.220    899.610    889.611    842.576  0.001112 2823
  30.230    895.570    889.561    842.262  0.001117 2824
  30.240    900.780    889.346    841.947  0.001110 2825
  30.250    894.370    889.034    841.632  0.001118 2826
  30.260    899.350    888.672    841.318  0.001112 2827
  30.270    895.910    888.337    841.003  0.001116 2828
  30.280    902.860    888.114    840.688  0.001108 2829
  30.290    902.080    888.134    840.372  0.001109 2830
  30.300    906.790    888.443    840.057  0.001103 2831
  30.310    907.200    889.121    839.742  0.001102 2832
  30.320    910.130    890.223    839.426  0.001099 2833
  30.330    903.980    891.736    839.111  0.001106 2834
  30.340    910.250    893.668    838.795  0.001099 2835
  30.350    908.650    895.980    838.480  0.001101 2836
  30.360    919.560    898.601    838.165  0.001087 2837
  30.370    920.210    901.435    837.849  0.001087 2838
  30.380    921.940    904.364    837.534  0.001085 2839
  30.390    915.350    907.267    837.219  0.001092 2840
  30.400    925.820    910.034    836.904  0.001080 2841
  30.410    924.860    912.607    836.589  0.001081 2842
  30.420    931.980    914.950    836.275  0.001073 2843
  30.430    926.340    917.122    835.960  0.001080 2844
  30.440    932.380    919.213    835.646  0.001073 2845
  30.450    927.710    921.364    835.332  0.001078 2846
  30.460    935.740    923.718    835.018  0.001069 2847
  30.470    933.720    926.370    834.704  0.001071 2848
  30.480    942.820    929.379    834.391  0.001061 2849
  30.490    945.830    932.742    834.078  0.001057 2850
  30.500    951.710    936.399    833.765  0.001051 2851
  30.510    945.170    940.239    833.453  0.001058 2852
  30.520    955.990    944.115    833.141  0.001046 2853
  30.530    956.740    947.851    832.829  0.001045 2854
  30.540    961.590    951.281    832.518  0.001040 2855
  30.550    955.070    954.246    832.207  0.001047 2856
  30.560    957.320    956.590    831.897  0.001045 2857
  30.570    951.250    958.198    831.587  0.001051 2858
  30.580    955.540    959.011    831.277  0.001047 2859
  30.590    957.250    959.039    830.968  0.001045 2860
  30.600    960.730    958.324    830.659  0.001041 2861
  30.610    951.390    956.979    830.351  0.001051 2862
  30.620    954.720    955.181    830.043  0.001047 2863
  30.630    947.250    953.112    829.736  0.001056 2864
  30.640    950.910    951.000    829.430  0.001052 2865
  30.650    949.900    949.087    829.123  0.001053 2866
  30.660    951.620    947.664    828.818  0.001051 2867
  30.670    947.000    946.904    828.513  0.001056 2868
  30.680    953.270    947.027    828.209  0.001049 2869
  30.690    950.590    948.159    827.905  0.001052 2870
  30.700    958.210    950.362    827.602  0.001044 2871
  30.710    959.530    953.676    827.300  0.001042 2872
  30.720    974.180    958.062    826.998  0.001027 2873
  30.730    969.960    963.490    826.697  0.001031 2874
  30.740    982.860    969.853    826.396  0.001017 2875
  30.750    980.170    976.975    826.096  0.001020 2876
  30.760    996.420    984.608    825.797  0.001004 2877
  30.770   1000.300    992.406    825.499  0.001000 2878
  30.780   1009.930   1000.018    825.202  0.000990 2879
  30.790   1009.190   1007.053    824.905  0.000991 2880
  30.800   1018.120   1013.209    824.609  0.000982 2881
  30.810   1015.320   1018.260    824.313  0.000985 2882
  30.820   1027.630   1022.123    824.019  0.000973 2883
  30.830   1021.820   1024.860    823.725  0.000979 2884
  30.840   1031.680   1026.671    823.432  0.000969 2885
  30.850   1032.790   1027.815    823.140  0.000968 2886
  30.860   1032.750   1028.590    822.848  0.000968 2887
  30.870   1026.640   1029.253    822.558  0.000974 2888
  30.880   1035.640   1030.000    822.268  0.000966 2889
  30.890   1033.750   1030.991    821.979  0.000967 2890
  30.900   1039.390   1032.348    821.691  0.000962 2891
  30.910   1034.910   1034.232    821.404  0.000966 2892
  30.920   1045.040   1036.799    821.118  0.000957 2893
  30.930   1039.600   1040.159    820.832  0.000962 2894
  30.940   1052.620   1044.480    820.548  0.000950 2895
  30.950   1061.270   1049.834    820.264  0.000942 2896
  30.960   1071.550   1056.240    819.981  0.000933 2897
  30.970   1069.270   1063.611    819.700  0.000935 2898
  30.980   1083.180   1071.702    819.419  0.000923 2899
  30.990   1085.100   1080.197    819.139  0.000922 2900
  31.000   1103.690   1088.641    818.860  0.000906 2901
  31.010   1105.870   1096.515    818.582  0.000904 2902
  31.020   1111.950   1103.283    818.305  0.000899 2903
  31.030   1110.750   1108.477    818.028  0.000900 2904
  31.040   1119.940   1111.720    817.753  0.000893 2905
  31.050   1110.280   1112.842    817.479  0.000901 2906
  31.060   1114.590   1111.857    817.206  0.000897 2907
  31.070   1111.680   1108.970    816.934  0.000900 2908
  31.080   1108.660   1104.433    816.662  0.000902 2909
  31.090   1104.360   1098.631    816.392  0.000906 2910
  31.100   1098.850   1091.893    816.123  0.000910 2911
  31.110   1082.870   1084.460    815.854  0.000923 2912
  31.120   1080.040   1076.551    815.587  0.000926 2913
  31.130   1073.150   1068.311    815.321  0.000932 2914
  31.140   1068.370   1059.823    815.056  0.000936 2915
  31.150   1054.630   1051.230    814.791  0.000948 2916
  31.160   1048.990   1042.638    814.528  0.000953 2917
  31.170   1028.750   1034.213    814.266  0.000972 2918
  31.180   1027.850   1026.066    814.005  0.000973 2919
  31.190   1019.730   1018.303    813.745  0.000981 2920
  31.200   1015.590   1011.023    813.486  0.000985 2921
  31.210   1007.660   1004.347    813.228  0.000992 2922
  31.220   1006.700    998.393    812.971  0.000993 2923
  31.230    990.250    993.242    812.715  0.001010 2924
  31.240    994.590    988.982    812.460  0.001005 2925
  31.250    988.730    985.592    812.206  0.001011 2926
  31.260    992.650    983.022    811.953  0.001007 2927
  31.270    990.770    981.155    811.702  0.001009 2928
  31.280    992.970    979.839    811.451  0.001007 2929
  31.290    985.380    978.911    811.201  0.001015 2930
  31.300    990.290    978.253    810.953  0.001010 2931
  31.310    987.810    977.778    810.706  0.001012 2932
  31.320    992.010    977.485    810.459  0.001008 2933
  31.330    985.830    977.358    810.214  0.001014 2934
  31.340    991.330    977.444    809.970  0.001009 2935
  31.350    987.740    977.769    809.727  0.001012 2936
  31.360    993.880    978.314    809.484  0.001006 2937
  31.370    995.140    979.096    809.243  0.001005 2938
  31.380   1005.190    980.083    809.003  0.000995 2939
  31.390    998.730    981.260    808.765  0.001001 2940
  31.400   1003.230    982.622    808.527  0.000997 2941
  31.410    999.000    984.195    808.290  0.001001 2942
  31.420   1003.610    986.030    808.054  0.000996 2943
  31.430   1005.860    988.206    807.820  0.000994 2944
  31.440   1008.670    990.760    807.586  0.000991 2945
  31.450   1009.040    993.764    807.354  0.000991 2946
  31.460   1011.010    997.167    807.123  0.000989 2947
  31.470   1010.970   1000.826    806.892  0.000989 2948
  31.480   1015.380   1004.509    806.663  0.000985 2949
  31.490   1015.150   1007.839    806.435  0.000985 2950
  31.500   1019.380   1010.360    806.208  0.000981 2951
  31.510   1007.950   1011.626    805.982  0.000992 2952
  31.520   1013.150   1011.211    805.757  0.000987 2953
  31.530   1001.070   1008.847    805.533  0.000999 2954
  31.540    996.340   1004.486    805.311  0.001004 2955
  31.550    988.160    998.235    805.089  0.001012 2956
  31.560    982.260    990.465    804.868  0.001018 2957
  31.570    975.350    981.649    804.649  0.001025 2958
  31.580    970.720    972.311    804.430  0.001030 2959
  31.590    957.690    962.980    804.213  0.001044 2960
  31.600    954.220    954.069    803.996  0.001048 2961
  31.610    947.880    945.911    803.781  0.001055 2962
  31.620    949.200    938.671    803.567  0.001054 2963
  31.630    934.040    932.481    803.353  0.001071 2964
  31.640    936.030    927.348    803.141  0.001068 2965
  31.650    931.410    923.241    802.930  0.001074 2966
  31.660    933.450    920.107    802.720  0.001071 2967
  31.670    937.000    917.835    802.511  0.001067 2968
  31.680    937.440    916.307    802.303  0.001067 2969
  31.690    933.800    915.392    802.096  0.001071 2970
  31.700    931.660    915.005    801.890  0.001073 2971
  31.710    924.180    914.987    801.685  0.001082 2972
  31.720    932.250    915.254    801.481  0.001073 2973
  31.730    930.580    915.721    801.278  0.001075 2974
  31.740    937.980    916.295    801.076  0.001066 2975
  31.750    933.810    916.884    800.875  0.001071 2976
  31.760    937.010    917.455    800.675  0.001067 2977
  31.770    930.040    917.932    800.476  0.001075 2978
  31.780    937.630    918.342    800.278  0.001067 2979
  31.790    934.620    918.731    800.082  0.001070 2980
  31.800    938.630    919.230    799.886  0.001065 2981
  31.810    938.970    919.937    799.691  0.001065 2982
  31.820    939.180    920.990    799.497  0.001065 2983
  31.830    932.280    922.489    799.304  0.001073 2984
  31.840    946.130    924.505    799.112  0.001057 2985
  31.850    948.820    927.010    798.921  0.001054 2986
  31.860    947.680    929.928    798.732  0.001055 2987
  31.870    952.980    933.098    798.543  0.001049 2988
  31.880    959.810    936.342    798.355  0.001042 2989
  31.890    954.260    939.392    798.168  0.001048 2990
  31.900    957.670    941.988    797.982  0.001044 2991
  31.910    955.570    943.885    797.797  0.001046 2992
  31.920    962.010    944.880    797.612  0.001039 2993
  31.930    957.050    944.873    797.429  0.001045 2994
  31.940    956.590    943.851    797.247  0.001045 2995
  31.950    946.510    941.840    797.066  0.001057 2996
  31.960    940.880    938.934    796.885  0.001063 2997
  31.970    940.490    935.311    796.706  0.001063 2998
  31.980    936.800    931.135    796.527  0.001067 2999
  31.990    930.430    926.653    796.350  0.001075 3000
  32.000    927.890    922.108    796.173  0.001078 3001
  32.010    916.890    917.677    795.998  0.001091 3002
  32.020    917.370    913.601    795.823  0.001090 3003
  32.030    916.980    910.049    795.649  0.001091 3004
  32.040    916.450    907.126    795.476  0.001091 3005
  32.050    911.450    904.931    795.304  0.001097 3006
  32.060    915.110    903.491    795.133  0.001093 3007
  32.070    905.720    902.826    794.962  0.001104 3008
  32.080    910.570    902.927    794.793  0.001098 3009
  32.090    910.360    903.771    794.625  0.001098 3010
  32.100    917.350    905.277    794.457  0.001090 3011
  32.110    910.130    907.414    794.290  0.001099 3012
  32.120    920.590    910.035    794.124  0.001086 3013
  32.130    917.020    912.993    793.959  0.001090 3014
  32.140    920.550    916.117    793.795  0.001086 3015
  32.150    922.880    919.181    793.632  0.001084 3016
  32.160    924.710    921.951    793.469  0.001081 3017
  32.170    921.100    924.189    793.308  0.001086 3018
  32.180    920.800    925.766    793.147  0.001086 3019
  32.190    916.960    926.521    792.987  0.001091 3020
  32.200    922.850    926.457    792.828  0.001084 3021
  32.210    921.130    925.711    792.670  0.001086 3022
  32.220    924.390    924.446    792.513  0.001082 3023
  32.230    919.450    922.885    792.356  0.001088 3024
  32.240    923.630    921.313    792.200  0.001083 3025
  32.250    917.390    919.980    792.045  0.001090 3026
  32.260    925.170    919.108    791.891  0.001081 3027
  32.270    919.870    918.834    791.738  0.001087 3028
  32.280    923.380    919.242    791.586  0.001083 3029
  32.290    922.330    920.277    791.434  0.001084 3030
  32.300    926.400    921.882    791.283  0.001079 3031
  32.310    922.000    923.825    791.133  0.001085 3032
  32.320    929.440    925.936    790.984  0.001076 3033
  32.330    931.690    927.967    790.835  0.001073 3034
  32.340    933.040    929.721    790.687  0.001072 3035
  32.350    934.540    931.083    790.540  0.001070 3036
  32.360    938.010    931.914    790.394  0.001066 3037
  32.370    928.470    932.155    790.249  0.001077 3038
  32.380    928.700    931.682    790.104  0.001077 3039
  32.390    928.880    930.465    789.960  0.001077 3040
  32.400    928.200    928.533    789.817  0.001077 3041
  32.410    920.160    925.916    789.675  0.001087 3042
  32.420    921.340    922.791    789.533  0.001085 3043
  32.430    912.220    919.362    789.392  0.001096 3044
  32.440    915.260    915.843    789.252  0.001093 3045
  32.450    907.940    912.445    789.113  0.001101 3046
  32.460    909.320    909.296    788.974  0.001100 3047
  32.470    897.330    906.460    788.836  0.001114 3048
  32.480    900.730    904.017    788.699  0.001110 3049
  32.490    890.330    901.995    788.562  0.001123 3050
  32.500    899.030    900.356    788.427  0.001112 3051
  32.510    900.470    899.137    788.292  0.001111 3052
  32.520    899.490    898.361    788.157  0.001112 3053
  32.530    894.700    897.995    788.024  0.001118 3054
  32.540    899.530    898.039    787.891  0.001112 3055
  32.550    890.560    898.413    787.759  0.001123 3056
  32.560    894.080    899.048    787.627  0.001118 3057
  32.570    893.490    899.825    787.496  0.001119 3058
  32.580    901.060    900.562    787.366  0.001110 3059
  32.590    896.670    901.080    787.237  0.001115 3060
  32.600    903.710    901.204    787.108  0.001107 3061
  32.610    892.140    900.751    786.980  0.001121 3062
  32.620    900.500    899.631    786.853  0.001110 3063
  32.630    895.360    897.783    786.726  0.001117 3064
  32.640    893.890    895.273    786.600  0.001119 3065
  32.650    885.300    892.195    786.474  0.001130 3066
  32.660    883.550    888.697    786.350  0.001132 3067
  32.670    876.980    884.992    786.226  0.001140 3068
  32.680    881.970    881.315    786.102  0.001134 3069
  32.690    876.580    877.815    785.980  0.001141 3070
  32.700    875.460    874.671    785.858  0.001142 3071
  32.710    871.900    871.978    785.736  0.001147 3072
  32.720    874.590    869.810    785.615  0.001143 3073
  32.730    867.500    868.189    785.495  0.001153 3074
  32.740    874.270    867.114    785.376  0.001144 3075
  32.750    872.630    866.589    785.257  0.001146 3076
  32.760    877.880    866.614    785.139  0.001139 3077
  32.770    880.300    867.151    785.021  0.001136 3078
  32.780    876.400    868.146    784.904  0.001141 3079
  32.790    871.660    869.626    784.788  0.001147 3080
  32.800    878.330    871.543    784.672  0.001139 3081
  32.810    878.790    873.902    784.557  0.001138 3082
  32.820    886.270    876.663    784.443  0.001128 3083
  32.830    888.290    879.794    784.329  0.001126 3084
  32.840    896.450    883.247    784.216  0.001116 3085
  32.850    891.220    886.985    784.104  0.001122 3086
  32.860    899.170    890.948    783.992  0.001112 3087
  32.870    899.190    895.090    783.880  0.001112 3088
  32.880    911.160    899.376    783.770  0.001098 3089
  32.890    909.790    903.745    783.659  0.001099 3090
  32.900    919.260    908.186    783.550  0.001088 3091
  32.910    914.230    912.652    783.441  0.001094 3092
  32.920    928.390    917.105    783.333  0.001077 3093
  32.930    925.620    921.555    783.225  0.001080 3094
  32.940    932.600    925.915    783.118  0.001072 3095
  32.950    933.180    930.153    783.011  0.001072 3096
  32.960    942.010    934.228    782.905  0.001062 3097
  32.970    934.600    938.111    782.800  0.001070 3098
  32.980    946.610    941.804    782.695  0.001056 3099
  32.990    947.510    945.362    782.591  0.001055 3100
  33.000    954.240    948.845    782.487  0.001048 3101
  33.010    952.930    952.347    782.384  0.001049 3102
  33.020    961.360    955.912    782.282  0.001040 3103
  33.030    955.810    959.513    782.180  0.001046 3104
  33.040    966.190    963.187    782.079  0.001035 3105
  33.050    967.420    966.755    781.978  0.001034 3106
  33.060    975.390    970.035    781.878  0.001025 3107
  33.070    967.820    972.766    781.778  0.001033 3108
  33.080    967.400    974.730    781.679  0.001034 3109
  33.090    962.510    975.611    781.580  0.001039 3110
  33.100    967.330    975.263    781.482  0.001034 3111
  33.110    959.140    973.535    781.385  0.001043 3112
  33.120    959.280    970.413    781.288  0.001042 3113
  33.130    954.950    965.984    781.192  0.001047 3114
  33.140    951.330    960.496    781.096  0.001051 3115
  33.150    936.020    954.258    781.001  0.001068 3116
  33.160    936.000    947.594    780.906  0.001068 3117
  33.170    933.770    940.883    780.812  0.001071 3118
  33.180    932.090    934.447    780.719  0.001073 3119
  33.190    923.030    928.489    780.626  0.001083 3120
  33.200    923.090    923.231    780.533  0.001083 3121
  33.210    914.250    918.791    780.441  0.001094 3122
  33.220    918.010    915.244    780.350  0.001089 3123
  33.230    910.270    912.654    780.259  0.001099 3124
  33.240    918.160    911.020    780.169  0.001089 3125
  33.250    913.470    910.311    780.079  0.001095 3126
  33.260    920.220    910.487    779.990  0.001087 3127
  33.270    912.390    911.462    779.901  0.001096 3128
  33.280    921.590    913.107    779.813  0.001085 3129
  33.290    919.910    915.283    779.725  0.001087 3130
  33.300    926.150    917.848    779.638  0.001080 3131
  33.310    922.710    920.565    779.551  0.001084 3132
  33.320    931.110    923.262    779.465  0.001074 3133
  33.330    924.540    925.753    779.380  0.001082 3134
  33.340    924.820    927.829    779.295  0.001081 3135
  33.350    928.010    929.329    779.210  0.001078 3136
  33.360    932.550    930.073    779.126  0.001072 3137
  33.370    928.750    929.934    779.042  0.001077 3138
  33.380    928.160    928.853    778.959  0.001077 3139
  33.390    916.030    926.800    778.877  0.001092 3140
  33.400    920.620    923.848    778.795  0.001086 3141
  33.410    915.120    920.105    778.713  0.001093 3142
  33.420    911.720    915.763    778.632  0.001097 3143
  33.430    904.900    911.013    778.552  0.001105 3144
  33.440    904.630    906.076    778.472  0.001105 3145
  33.450    891.150    901.167    778.392  0.001122 3146
  33.460    897.900    896.459    778.313  0.001114 3147
  33.470    892.020    892.082    778.235  0.001121 3148
  33.480    889.900    888.123    778.157  0.001124 3149
  33.490    884.870    884.677    778.079  0.001130 3150
  33.500    883.490    881.820    778.002  0.001132 3151
  33.510    877.890    879.565    777.925  0.001139 3152
  33.520    881.900    877.921    777.849  0.001134 3153
  33.530    880.070    876.915    777.774  0.001136 3154
  33.540    884.980    876.458    777.699  0.001130 3155
  33.550    882.470    876.549    777.624  0.001133 3156
  33.560    887.160    877.067    777.550  0.001127 3157
  33.570    880.920    877.912    777.476  0.001135 3158
  33.580    886.580    878.930    777.403  0.001128 3159
  33.590    884.690    879.963    777.330  0.001130 3160
  33.600    889.130    880.890    777.258  0.001125 3161
  33.610    884.890    881.571    777.186  0.001130 3162
  33.620    889.370    881.940    777.115  0.001124 3163
  33.630    882.400    881.940    777.044  0.001133 3164
  33.640    886.100    881.563    776.973  0.001129 3165
  33.650    883.840    880.826    776.903  0.001131 3166
  33.660    886.760    879.793    776.834  0.001128 3167
  33.670    881.680    878.549    776.765  0.001134 3168
  33.680    883.600    877.178    776.696  0.001132 3169
  33.690    870.690    875.742    776.628  0.001149 3170
  33.700    875.230    874.325    776.560  0.001143 3171
  33.710    869.490    873.003    776.493  0.001150 3172
  33.720    877.140    871.763    776.426  0.001140 3173
  33.730    871.150    870.644    776.360  0.001148 3174
  33.740    874.790    869.634    776.294  0.001143 3175
  33.750    865.140    868.724    776.229  0.001156 3176
  33.760    870.310    867.858    776.164  0.001149 3177
  33.770    869.920    866.947    776.099  0.001150 3178
  33.780    874.280    865.964    776.035  0.001144 3179
  33.790    869.970    864.894    775.971  0.001149 3180
  33.800    871.200    863.663    775.908  0.001148 3181
  33.810    863.810    862.254    775.845  0.001158 3182
  33.820    866.290    860.723    775.783  0.001154 3183
  33.830    860.790    859.092    775.721  0.001162 3184
  33.840    863.830    857.448    775.659  0.001158 3185
  33.850    858.850    855.888    775.598  0.001164 3186
  33.860    856.770    854.521    775.537  0.001167 3187
  33.870    848.710    853.443    775.477  0.001178 3188
  33.880    857.170    852.716    775.417  0.001167 3189
  33.890    855.400    852.349    775.357  0.001169 3190
  33.900    861.220    852.427    775.298  0.001161 3191
  33.910    855.270    852.887    775.240  0.001169 3192
  33.920    860.630    853.721    775.181  0.001162 3193
  33.930    851.780    854.861    775.124  0.001174 3194
  33.940    863.110    856.244    775.066  0.001159 3195
  33.950    860.710    857.779    775.009  0.001162 3196
  33.960    865.960    859.373    774.953  0.001155 3197
  33.970    865.780    860.950    774.896  0.001155 3198
  33.980    864.370    862.433    774.840  0.001157 3199
  33.990    863.650    863.753    774.785  0.001158 3200
  34.000    872.200    864.853    774.730  0.001147 3201
  34.010    869.290    865.730    774.675  0.001150 3202
  34.020    872.680    866.404    774.621  0.001146 3203
  34.030    875.330    866.910    774.567  0.001142 3204
  34.040    875.000    867.376    774.514  0.001143 3205
  34.050    867.650    867.904    774.461  0.001153 3206
  34.060    879.300    868.685    774.408  0.001137 3207
  34.070    879.640    869.818    774.355  0.001137 3208
  34.080    882.180    871.425    774.303  0.001134 3209
  34.090    881.930    873.634    774.252  0.001134 3210
  34.100    892.170    876.453    774.201  0.001121 3211
  34.110    887.490    879.903    774.150  0.001127 3212
  34.120    897.700    883.956    774.099  0.001114 3213
  34.130    900.460    888.536    774.049  0.001111 3214
  34.140    907.910    893.477    773.999  0.001101 3215
  34.150    910.000    898.630    773.950  0.001099 3216
  34.160    915.120    903.773    773.901  0.001093 3217
  34.170    907.600    908.628    773.852  0.001102 3218
  34.180    916.920    912.984    773.804  0.001091 3219
  34.190    912.560    916.652    773.756  0.001096 3220
  34.200    922.240    919.519    773.708  0.001084 3221
  34.210    918.430    921.537    773.661  0.001089 3222
  34.220    925.420    922.825    773.614  0.001081 3223
  34.230    915.630    923.475    773.567  0.001092 3224
  34.240    921.060    923.695    773.521  0.001086 3225
  34.250    920.490    923.703    773.475  0.001086 3226
  34.260    925.030    923.639    773.430  0.001081 3227
  34.270    925.870    923.661    773.384  0.001080 3228
  34.280    925.720    923.824    773.339  0.001080 3229
  34.290    922.640    924.145    773.295  0.001084 3230
  34.300    928.730    924.511    773.251  0.001077 3231
  34.310    930.870    924.809    773.207  0.001074 3232
  34.320    933.480    924.865    773.163  0.001071 3233
  34.330    929.080    924.502    773.120  0.001076 3234
  34.340    928.520    923.532    773.077  0.001077 3235
  34.350    921.050    921.846    773.034  0.001086 3236
  34.360    922.830    919.424    772.992  0.001084 3237
  34.370    919.290    916.348    772.950  0.001088 3238
  34.380    918.190    912.831    772.908  0.001089 3239
  34.390    912.760    909.059    772.867  0.001096 3240
  34.400    912.560    905.207    772.826  0.001096 3241
  34.410    902.680    901.404    772.785  0.001108 3242
  34.420    903.890    897.687    772.745  0.001106 3243
  34.430    899.410    894.013    772.705  0.001112 3244
  34.440    897.250    890.318    772.665  0.001115 3245
  34.450    888.670    886.470    772.625  0.001125 3246
  34.460    890.560    882.446    772.586  0.001123 3247
  34.470    881.880    878.239    772.547  0.001134 3248
  34.480    881.830    873.937    772.508  0.001134 3249
  34.490    875.420    869.710    772.470  0.001142 3250
  34.500    872.300    865.733    772.432  0.001146 3251
  34.510    868.040    862.152    772.394  0.001152 3252
  34.520    868.630    859.121    772.357  0.001151 3253
  34.530    861.130    856.754    772.320  0.001161 3254
  34.540    863.920    855.174    772.283  0.001158 3255
  34.550    861.510    854.451    772.246  0.001161 3256
  34.560    869.510    854.628    772.210  0.001150 3257
  34.570    865.870    855.724    772.174  0.001155 3258
  34.580    871.930    857.805    772.138  0.001147 3259
  34.590    868.150    860.894    772.103  0.001152 3260
  34.600    876.240    864.981    772.068  0.001141 3261
  34.610    879.900    870.094    772.033  0.001136 3262
  34.620    892.950    876.094    771.998  0.001120 3263
  34.630    889.500    882.965    771.964  0.001124 3264
  34.640    907.300    890.508    771.930  0.001102 3265
  34.650    906.580    898.456    771.896  0.001103 3266
  34.660    916.710    906.515    771.862  0.001091 3267
  34.670    917.570    914.269    771.829  0.001090 3268
  34.680    923.590    921.290    771.796  0.001083 3269
  34.690    925.970    927.164    771.763  0.001080 3270
  34.700    931.750    931.555    771.731  0.001073 3271
  34.710    926.980    934.237    771.699  0.001079 3272
  34.720    932.410    935.148    771.667  0.001072 3273
  34.730    927.630    934.358    771.635  0.001078 3274
  34.740    924.850    932.062    771.604  0.001081 3275
  34.750    919.220    928.537    771.573  0.001088 3276
  34.760    916.410    924.078    771.542  0.001091 3277
  34.770    907.140    919.038    771.511  0.001102 3278
  34.780    907.200    913.725    771.481  0.001102 3279
  34.790    900.100    908.405    771.450  0.001111 3280
  34.800    904.260    903.228    771.421  0.001106 3281
  34.810    892.300    898.281    771.391  0.001121 3282
  34.820    887.360    893.591    771.362  0.001127 3283
  34.830    879.040    889.138    771.333  0.001138 3284
  34.840    881.180    884.911    771.304  0.001135 3285
  34.850    881.160    880.891    771.275  0.001135 3286
  34.860    878.820    877.062    771.247  0.001138 3287
  34.870    870.280    873.462    771.219  0.001149 3288
  34.880    870.030    870.165    771.191  0.001149 3289
  34.890    861.870    867.266    771.163  0.001160 3290
  34.900    868.580    864.807    771.136  0.001151 3291
  34.910    864.710    862.921    771.109  0.001156 3292
  34.920    867.080    861.694    771.082  0.001153 3293
  34.930    865.270    861.132    771.055  0.001156 3294
  34.940    865.040    861.264    771.029  0.001156 3295
  34.950    859.620    862.098    771.003  0.001163 3296
  34.960    866.990    863.605    770.977  0.001153 3297
  34.970    869.570    865.690    770.951  0.001150 3298
  34.980    873.780    868.349    770.926  0.001144 3299
  34.990    870.100    871.464    770.901  0.001149 3300
  35.000    882.490    874.909    770.876  0.001133 3301
  35.010    873.830    878.600    770.851  0.001144 3302
  35.020    885.410    882.377    770.827  0.001129 3303
  35.030    887.230    886.116    770.803  0.001127 3304
  35.040    893.210    889.709    770.779  0.001120 3305
  35.050    892.900    892.992    770.755  0.001120 3306
  35.060    896.280    895.931    770.732  0.001116 3307
  35.070    894.370    898.387    770.709  0.001118 3308
  35.080    896.070    900.374    770.686  0.001116 3309
  35.090    894.960    901.851    770.663  0.001117 3310
  35.100    898.600    902.871    770.641  0.001113 3311
  35.110    894.720    903.494    770.619  0.001118 3312
  35.120    896.510    903.758    770.597  0.001115 3313
  35.130    891.980    903.852    770.575  0.001121 3314
  35.140    896.710    903.906    770.554  0.001115 3315
  35.150    895.570    904.085    770.533  0.001117 3316
  35.160    899.190    904.485    770.512  0.001112 3317
  35.170    897.490    905.237    770.491  0.001114 3318
  35.180    900.290    906.387    770.471  0.001111 3319
  35.190    898.500    907.962    770.450  0.001113 3320
  35.200    903.650    909.880    770.431  0.001107 3321
  35.210    906.090    912.041    770.411  0.001104 3322
  35.220    916.120    914.275    770.391  0.001092 3323
  35.230    908.430    916.415    770.372  0.001101 3324
  35.240    910.950    918.320    770.353  0.001098 3325
  35.250    907.890    919.814    770.335  0.001101 3326
  35.260    912.470    920.801    770.316  0.001096 3327
  35.270    914.650    921.231    770.298  0.001093 3328
  35.280    924.350    921.115    770.280  0.001082 3329
  35.290    920.690    920.544    770.263  0.001086 3330
  35.300    920.230    919.649    770.245  0.001087 3331
  35.310    913.970    918.596    770.228  0.001094 3332
  35.320    919.990    917.612    770.212  0.001087 3333
  35.330    914.270    916.894    770.195  0.001094 3334
  35.340    920.040    916.604    770.179  0.001087 3335
  35.350    922.090    916.812    770.163  0.001084 3336
  35.360    924.500    917.511    770.147  0.001082 3337
  35.370    914.000    918.598    770.131  0.001094 3338
  35.380    923.860    919.936    770.116  0.001082 3339
  35.390    917.990    921.287    770.101  0.001089 3340
  35.400    928.320    922.439    770.086  0.001077 3341
  35.410    918.490    923.251    770.072  0.001089 3342
  35.420    920.420    923.511    770.058  0.001086 3343
  35.430    908.730    923.116    770.044  0.001100 3344
  35.440    910.530    922.056    770.030  0.001098 3345
  35.450    907.060    920.249    770.017  0.001102 3346
  35.460    905.060    917.696    770.004  0.001105 3347
  35.470    895.730    914.396    769.991  0.001116 3348
  35.480    897.620    910.406    769.979  0.001114 3349
  35.490    887.000    905.795    769.967  0.001127 3350
  35.500    886.380    900.720    769.955  0.001128 3351
  35.510    879.640    895.279    769.943  0.001137 3352
  35.520    876.330    889.710    769.932  0.001141 3353
  35.530    872.390    884.089    769.921  0.001146 3354
  35.540    869.400    878.580    769.910  0.001150 3355
  35.550    859.240    873.332    769.900  0.001164 3356
  35.560    858.100    868.433    769.890  0.001165 3357
  35.570    857.590    863.998    769.880  0.001166 3358
  35.580    856.650    860.062    769.870  0.001167 3359
  35.590    851.420    856.653    769.861  0.001175 3360
  35.600    849.860    853.829    769.852  0.001177 3361
  35.610    843.880    851.556    769.844  0.001185 3362
  35.620    846.930    849.826    769.835  0.001181 3363
  35.630    847.880    848.604    769.827  0.001179 3364
  35.640    852.900    847.839    769.819  0.001172 3365
  35.650    844.930    847.505    769.812  0.001184 3366
  35.660    849.850    847.519    769.805  0.001177 3367
  35.670    844.390    847.801    769.798  0.001184 3368
  35.680    848.100    848.283    769.792  0.001179 3369
  35.690    846.260    848.889    769.786  0.001182 3370
  35.700    848.340    849.515    769.780  0.001179 3371
  35.710    848.430    850.100    769.775  0.001179 3372
  35.720    850.570    850.552    769.769  0.001176 3373
  35.730    840.740    850.836    769.765  0.001189 3374
  35.740    846.460    850.851    769.760  0.001181 3375
  35.750    841.520    850.711    769.756  0.001188 3376
  35.760    847.150    850.319    769.752  0.001180 3377
  35.770    840.690    849.749    769.749  0.001189 3378
  35.780    844.040    849.046    769.746  0.001185 3379
  35.790    837.130    848.249    769.743  0.001195 3380
  35.800    846.690    847.499    769.740  0.001181 3381
  35.810    844.930    846.795    769.738  0.001184 3382
  35.820    846.870    846.226    769.737  0.001181 3383
  35.830    843.620    845.829    769.735  0.001185 3384
  35.840    848.480    845.577    769.734  0.001179 3385
  35.850    842.770    845.517    769.733  0.001187 3386
  35.860    848.000    845.622    769.733  0.001179 3387
  35.870    844.420    845.845    769.733  0.001184 3388
  35.880    853.750    846.173    769.733  0.001171 3389
  35.890    848.060    846.551    769.734  0.001179 3390
  35.900    851.930    846.976    769.735  0.001174 3391
  35.910    846.100    847.385    769.737  0.001182 3392
  35.920    849.190    847.792    769.739  0.001178 3393
  35.930    847.940    848.168    769.741  0.001179 3394
  35.940    850.940    848.547    769.744  0.001175 3395
  35.950    848.310    848.959    769.747  0.001179 3396
  35.960    850.150    849.413    769.750  0.001176 3397
  35.970    846.530    849.951    769.754  0.001181 3398
  35.980    854.130    850.580    769.758  0.001171 3399
  35.990    852.800    851.313    769.762  0.001173 3400
  36.000    854.270    852.135    769.767  0.001171 3401
  36.010    852.410    853.019    769.772  0.001173 3402
  36.020    858.480    853.943    769.778  0.001165 3403
  36.030    852.040    854.901    769.784  0.001174 3404
  36.040    858.770    855.839    769.791  0.001164 3405
  36.050    856.710    856.790    769.798  0.001167 3406
  36.060    857.260    857.677    769.805  0.001167 3407
  36.070    859.520    858.493    769.813  0.001163 3408
  36.080    859.230    859.223    769.821  0.001164 3409
  36.090    851.070    859.875    769.829  0.001175 3410
  36.100    858.170    860.419    769.838  0.001165 3411
  36.110    854.450    860.812    769.847  0.001170 3412
  36.120    859.870    860.991    769.857  0.001163 3413
  36.130    853.960    860.959    769.867  0.001171 3414
  36.140    853.970    860.686    769.878  0.001171 3415
  36.150    842.470    860.131    769.889  0.001187 3416
  36.160    846.160    859.331    769.900  0.001182 3417
  36.170    845.610    858.337    769.912  0.001183 3418
  36.180    845.150    857.190    769.924  0.001183 3419
  36.190    843.340    856.025    769.937  0.001186 3420
  36.200    841.810    854.903    769.950  0.001188 3421
  36.210    835.780    853.917    769.964  0.001196 3422
  36.220    838.970    853.100    769.978  0.001192 3423
  36.230    838.680    852.516    769.992  0.001192 3424
  36.240    845.970    852.189    770.007  0.001182 3425
  36.250    844.000    852.097    770.022  0.001185 3426
  36.260    847.490    852.223    770.038  0.001180 3427
  36.270    840.770    852.559    770.054  0.001189 3428
  36.280    846.890    853.074    770.071  0.001181 3429
  36.290    843.290    853.735    770.088  0.001186 3430
  36.300    847.210    854.526    770.105  0.001180 3431
  36.310    848.800    855.437    770.123  0.001178 3432
  36.320    853.450    856.468    770.142  0.001172 3433
  36.330    845.030    857.614    770.161  0.001183 3434
  36.340    848.000    858.881    770.180  0.001179 3435
  36.350    850.300    860.249    770.200  0.001176 3436
  36.360    859.070    861.717    770.220  0.001164 3437
  36.370    854.320    863.244    770.241  0.001171 3438
  36.380    860.710    864.736    770.262  0.001162 3439
  36.390    856.970    866.168    770.283  0.001167 3440
  36.400    865.830    867.482    770.306  0.001155 3441
  36.410    864.160    868.679    770.328  0.001157 3442
  36.420    865.820    869.782    770.351  0.001155 3443
  36.430    864.620    870.840    770.375  0.001157 3444
  36.440    870.050    871.895    770.399  0.001149 3445
  36.450    864.540    873.026    770.423  0.001157 3446
  36.460    866.420    874.256    770.448  0.001154 3447
  36.470    866.450    875.563    770.474  0.001154 3448
  36.480    871.740    876.909    770.499  0.001147 3449
  36.490    873.690    878.215    770.526  0.001145 3450
  36.500    877.700    879.395    770.553  0.001139 3451
  36.510    871.660    880.350    770.580  0.001147 3452
  36.520    875.050    881.041    770.608  0.001143 3453
  36.530    877.000    881.347    770.636  0.001140 3454
  36.540    884.700    881.253    770.665  0.001130 3455
  36.550    876.090    880.755    770.694  0.001141 3456
  36.560    881.080    879.832    770.724  0.001135 3457
  36.570    873.100    878.581    770.754  0.001145 3458
  36.580    876.850    877.070    770.785  0.001140 3459
  36.590    875.660    875.387    770.816  0.001142 3460
  36.600    873.590    873.652    770.848  0.001145 3461
  36.610    868.810    872.000    770.880  0.001151 3462
  36.620    870.960    870.552    770.913  0.001148 3463
  36.630    861.460    869.418    770.946  0.001161 3464
  36.640    869.410    868.660    770.980  0.001150 3465
  36.650    867.820    868.344    771.014  0.001152 3466
  36.660    875.750    868.479    771.049  0.001142 3467
  36.670    874.160    869.051    771.084  0.001144 3468
  36.680    875.810    870.020    771.120  0.001142 3469
  36.690    871.520    871.320    771.156  0.001147 3470
  36.700    880.880    872.897    771.193  0.001135 3471
  36.710    884.080    874.584    771.230  0.001131 3472
  36.720    887.940    876.324    771.268  0.001126 3473
  36.730    884.810    878.012    771.306  0.001130 3474
  36.740    890.220    879.541    771.345  0.001123 3475
  36.750    881.490    880.830    771.384  0.001134 3476
  36.760    886.940    881.811    771.424  0.001127 3477
  36.770    885.090    882.469    771.464  0.001130 3478
  36.780    892.080    882.823    771.505  0.001121 3479
  36.790    885.250    882.932    771.546  0.001130 3480
  36.800    889.100    882.894    771.588  0.001125 3481
  36.810    885.050    882.821    771.630  0.001130 3482
  36.820    886.430    882.860    771.673  0.001128 3483
  36.830    887.190    883.103    771.716  0.001127 3484
  36.840    895.150    883.675    771.760  0.001117 3485
  36.850    893.490    884.639    771.804  0.001119 3486
  36.860    902.050    886.006    771.849  0.001109 3487
  36.870    897.940    887.742    771.894  0.001114 3488
  36.880    907.780    889.837    771.940  0.001102 3489
  36.890    905.590    892.140    771.986  0.001104 3490
  36.900    908.560    894.557    772.033  0.001101 3491
  36.910    905.400    896.959    772.080  0.001104 3492
  36.920    912.020    899.160    772.128  0.001096 3493
  36.930    904.570    901.014    772.176  0.001105 3494
  36.940    911.390    902.392    772.225  0.001097 3495
  36.950    906.590    903.204    772.275  0.001103 3496
  36.960    909.840    903.351    772.324  0.001099 3497
  36.970    904.080    902.891    772.375  0.001106 3498
  36.980    909.490    901.862    772.426  0.001100 3499
  36.990    898.830    900.387    772.477  0.001113 3500
  37.000    905.730    898.616    772.529  0.001104 3501
  37.010    896.840    896.722    772.581  0.001115 3502
  37.020    900.620    894.809    772.634  0.001110 3503
  37.030    900.400    893.039    772.688  0.001111 3504
  37.040    903.110    891.520    772.741  0.001107 3505
  37.050    887.280    890.296    772.796  0.001127 3506
  37.060    892.840    889.419    772.851  0.001120 3507
  37.070    893.650    888.845    772.906  0.001119 3508
  37.080    893.860    888.525    772.962  0.001119 3509
  37.090    887.640    888.336    773.018  0.001127 3510
  37.100    890.130    888.199    773.075  0.001123 3511
  37.110    884.490    887.966    773.132  0.001131 3512
  37.120    887.080    887.601    773.190  0.001127 3513
  37.130    883.840    887.006    773.249  0.001131 3514
  37.140    890.010    886.140    773.307  0.001124 3515
  37.150    886.680    885.032    773.367  0.001128 3516
  37.160    885.830    883.672    773.427  0.001129 3517
  37.170    877.770    882.128    773.487  0.001139 3518
  37.180    879.720    880.465    773.548  0.001137 3519
  37.190    878.080    878.754    773.609  0.001139 3520
  37.200    881.150    877.078    773.671  0.001135 3521
  37.210    877.150    875.488    773.733  0.001140 3522
  37.220    876.640    874.060    773.796  0.001141 3523
  37.230    868.500    872.830    773.859  0.001151 3524
  37.240    873.790    871.812    773.923  0.001144 3525
  37.250    871.250    870.996    773.987  0.001148 3526
  37.260    877.410    870.361    774.051  0.001140 3527
  37.270    872.320    869.846    774.116  0.001146 3528
  37.280    873.800    869.395    774.182  0.001144 3529
  37.290    868.710    868.928    774.248  0.001151 3530
  37.300    873.210    868.376    774.315  0.001145 3531
  37.310    871.430    867.655    774.382  0.001148 3532
  37.320    875.020    866.719    774.449  0.001143 3533
  37.330    870.060    865.511    774.517  0.001149 3534
  37.340    874.300    864.022    774.585  0.001144 3535
  37.350    864.870    862.286    774.654  0.001156 3536
  37.360    871.110    860.291    774.723  0.001148 3537
  37.370    863.960    858.109    774.793  0.001157 3538
  37.380    867.540    855.778    774.863  0.001153 3539
  37.390    859.260    853.341    774.934  0.001164 3540
  37.400    862.170    850.902    775.005  0.001160 3541
  37.410    851.310    848.521    775.077  0.001175 3542
  37.420    857.540    846.252    775.149  0.001166 3543
  37.430    853.870    844.156    775.221  0.001171 3544
  37.440    854.420    842.333    775.294  0.001170 3545
  37.450    846.740    840.825    775.367  0.001181 3546
  37.460    852.790    839.641    775.441  0.001173 3547
  37.470    847.010    838.822    775.515  0.001181 3548
  37.480    852.070    838.362    775.590  0.001174 3549
  37.490    850.310    838.269    775.665  0.001176 3550
  37.500    855.080    838.516    775.740  0.001169 3551
  37.510    855.230    839.054    775.816  0.001169 3552
  37.520    855.990    839.861    775.892  0.001168 3553
  37.530    850.530    840.819    775.969  0.001176 3554
  37.540    854.720    841.885    776.046  0.001170 3555
  37.550    854.080    843.004    776.124  0.001171 3556
  37.560    858.020    844.128    776.201  0.001165 3557
  37.570    855.880    845.220    776.280  0.001168 3558
  37.580    858.030    846.212    776.359  0.001165 3559
  37.590    848.990    847.125    776.438  0.001178 3560
  37.600    850.860    847.985    776.517  0.001175 3561
  37.610    857.300    848.760    776.597  0.001166 3562
  37.620    858.430    849.550    776.677  0.001165 3563
  37.630    854.910    850.344    776.758  0.001170 3564
  37.640    858.980    851.220    776.839  0.001164 3565
  37.650    855.580    852.170    776.921  0.001169 3566
  37.660    861.660    853.203    777.003  0.001161 3567
  37.670    860.810    854.282    777.085  0.001162 3568
  37.680    862.670    855.382    777.167  0.001159 3569
  37.690    858.030    856.493    777.250  0.001165 3570
  37.700    863.990    857.625    777.334  0.001157 3571
  37.710    858.030    858.749    777.417  0.001165 3572
  37.720    864.480    859.907    777.501  0.001157 3573
  37.730    865.400    861.176    777.586  0.001156 3574
  37.740    867.310    862.602    777.670  0.001153 3575
  37.750    866.670    864.238    777.755  0.001154 3576
  37.760    871.560    866.216    777.841  0.001147 3577
  37.770    872.540    868.558    777.927  0.001146 3578
  37.780    877.660    871.303    778.013  0.001139 3579
  37.790    879.170    874.519    778.099  0.001137 3580
  37.800    888.640    878.243    778.186  0.001125 3581
  37.810    890.960    882.444    778.273  0.001122 3582
  37.820    899.100    887.094    778.360  0.001112 3583
  37.830    891.970    892.077    778.448  0.001121 3584
  37.840    905.100    897.246    778.536  0.001105 3585
  37.850    907.850    902.472    778.625  0.001102 3586
  37.860    912.690    907.552    778.713  0.001096 3587
  37.870    916.630    912.291    778.802  0.001091 3588
  37.880    924.510    916.465    778.891  0.001082 3589
  37.890    915.090    919.943    778.981  0.001093 3590
  37.900    921.810    922.574    779.071  0.001085 3591
  37.910    918.690    924.323    779.161  0.001089 3592
  37.920    923.010    925.141    779.251  0.001083 3593
  37.930    915.550    925.093    779.342  0.001092 3594
  37.940    914.210    924.246    779.433  0.001094 3595
  37.950    906.010    922.716    779.524  0.001104 3596
  37.960    910.810    920.572    779.615  0.001098 3597
  37.970    908.690    917.948    779.707  0.001100 3598
  37.980    905.160    914.949    779.799  0.001105 3599
  37.990    899.220    911.679    779.891  0.001112 3600
  38.000    896.900    908.219    779.984  0.001115 3601
  38.010    886.870    904.622    780.077  0.001128 3602
  38.020    892.770    900.943    780.170  0.001120 3603
  38.030    889.540    897.242    780.263  0.001124 3604
  38.040    886.050    893.554    780.356  0.001129 3605
  38.050    881.990    889.899    780.450  0.001134 3606
  38.060    880.340    886.295    780.544  0.001136 3607
  38.070    872.990    882.778    780.638  0.001145 3608
  38.080    870.400    879.373    780.732  0.001149 3609
  38.090    861.730    876.100    780.827  0.001160 3610
  38.100    863.950    872.984    780.921  0.001157 3611
  38.110    859.350    870.010    781.016  0.001164 3612
  38.120    861.840    867.171    781.111  0.001160 3613
  38.130    852.060    864.469    781.207  0.001174 3614
  38.140    855.580    861.880    781.302  0.001169 3615
  38.150    851.420    859.416    781.398  0.001175 3616
  38.160    854.760    857.024    781.494  0.001170 3617
  38.170    846.690    854.708    781.590  0.001181 3618
  38.180    846.600    852.428    781.686  0.001181 3619
  38.190    838.260    850.262    781.782  0.001193 3620
  38.200    841.520    848.194    781.879  0.001188 3621
  38.210    842.180    846.227    781.975  0.001187 3622
  38.220    844.210    844.438    782.072  0.001185 3623
  38.230    835.750    842.778    782.169  0.001197 3624
  38.240    839.340    841.292    782.266  0.001191 3625
  38.250    830.470    840.012    782.363  0.001204 3626
  38.260    836.640    838.924    782.461  0.001195 3627
  38.270    834.370    838.022    782.558  0.001199 3628
  38.280    837.450    837.316    782.656  0.001194 3629
  38.290    833.590    836.794    782.753  0.001200 3630
  38.300    839.660    836.471    782.851  0.001191 3631
  38.310    831.900    836.318    782.949  0.001202 3632
  38.320    838.360    836.349    783.047  0.001193 3633
  38.330    837.840    836.553    783.145  0.001194 3634
  38.340    837.430    836.901    783.243  0.001194 3635
  38.350    840.870    837.380    783.341  0.001189 3636
  38.360    840.480    838.009    783.440  0.001190 3637
  38.370    836.660    838.739    783.538  0.001195 3638
  38.380    838.550    839.547    783.637  0.001193 3639
  38.390    843.840    840.438    783.735  0.001185 3640
  38.400    847.540    841.378    783.834  0.001180 3641
  38.410    844.240    842.359    783.932  0.001184 3642
  38.420    846.800    843.320    784.031  0.001181 3643
  38.430    840.650    844.241    784.130  0.001190 3644
  38.440    846.960    845.088    784.228  0.001181 3645
  38.450    846.590    845.871    784.327  0.001181 3646
  38.460    848.360    846.525    784.426  0.001179 3647
  38.470    845.300    847.140    784.525  0.001183 3648
  38.480    847.700    847.652    784.624  0.001180 3649
  38.490    840.790    848.119    784.723  0.001189 3650
  38.500    846.880    848.553    784.821  0.001181 3651
  38.510    849.130    848.977    784.920  0.001178 3652
  38.520    853.450    849.398    785.019  0.001172 3653
  38.530    848.490    849.843    785.118  0.001179 3654
  38.540    850.180    850.325    785.217  0.001176 3655
  38.550    841.350    850.819    785.316  0.001189 3656
  38.560    847.430    851.311    785.414  0.001180 3657
  38.570    845.730    851.764    785.513  0.001182 3658
  38.580    850.760    852.168    785.612  0.001175 3659
  38.590    844.310    852.512    785.711  0.001184 3660
  38.600    848.550    852.801    785.809  0.001178 3661
  38.610    842.640    852.996    785.908  0.001187 3662
  38.620    851.770    853.098    786.006  0.001174 3663
  38.630    849.700    853.122    786.105  0.001177 3664
  38.640    851.990    853.080    786.203  0.001174 3665
  38.650    849.330    852.992    786.302  0.001177 3666
  38.660    853.910    852.878    786.400  0.001171 3667
  38.670    844.260    852.765    786.498  0.001184 3668
  38.680    849.040    852.655    786.596  0.001178 3669
  38.690    849.040    852.563    786.694  0.001178 3670
  38.700    853.160    852.464    786.792  0.001172 3671
  38.710    850.660    852.367    786.890  0.001176 3672
  38.720    852.500    852.215    786.988  0.001173 3673
  38.730    845.250    852.018    787.085  0.001183 3674
  38.740    849.540    851.707    787.183  0.001177 3675
  38.750    848.830    851.273    787.280  0.001178 3676
  38.760    849.210    850.711    787.377  0.001178 3677
  38.770    844.010    850.001    787.475  0.001185 3678
  38.780    843.750    849.160    787.572  0.001185 3679
  38.790    840.670    848.184    787.668  0.001190 3680
  38.800    842.390    847.132    787.765  0.001187 3681
  38.810    838.870    846.016    787.862  0.001192 3682
  38.820    839.440    844.900    787.958  0.001191 3683
  38.830    836.880    843.858    788.054  0.001195 3684
  38.840    838.500    842.857    788.150  0.001193 3685
  38.850    832.530    841.978    788.246  0.001201 3686
  38.860    834.520    841.181    788.342  0.001198 3687
  38.870    831.430    840.478    788.438  0.001203 3688
  38.880    838.230    839.853    788.533  0.001193 3689
  38.890    833.820    839.327    788.628  0.001199 3690
  38.900    834.070    838.836    788.723  0.001199 3691
  38.910    830.530    838.370    788.818  0.001204 3692
  38.920    835.770    837.919    788.913  0.001197 3693
  38.930    834.460    837.463    789.007  0.001198 3694
  38.940    834.800    836.975    789.101  0.001198 3695
  38.950    835.450    836.483    789.195  0.001197 3696
  38.960    839.350    835.967    789.289  0.001191 3697
  38.970    829.920    835.426    789.382  0.001205 3698
  38.980    838.630    834.885    789.476  0.001192 3699
  38.990    834.170    834.323    789.569  0.001199 3700
  39.000    836.530    833.743    789.661  0.001195 3701
  39.010    828.660    833.121    789.754  0.001207 3702
  39.020    829.850    832.445    789.846  0.001205 3703
  39.030    829.300    831.745    789.938  0.001206 3704
  39.040    831.730    831.036    790.030  0.001202 3705
  39.050    826.210    830.292    790.122  0.001210 3706
  39.060    829.990    829.571    790.213  0.001205 3707
  39.070    823.950    828.860    790.304  0.001214 3708
  39.080    827.890    828.231    790.395  0.001208 3709
  39.090    821.450    827.674    790.485  0.001217 3710
  39.100    829.280    827.267    790.576  0.001206 3711
  39.110    819.760    826.938    790.666  0.001220 3712
  39.120    826.540    826.775    790.755  0.001210 3713
  39.130    822.760    826.812    790.845  0.001215 3714
  39.140    829.290    827.024    790.934  0.001206 3715
  39.150    821.200    827.434    791.022  0.001218 3716
  39.160    828.710    828.062    791.111  0.001207 3717
  39.170    825.610    828.912    791.199  0.001211 3718
  39.180    832.580    829.984    791.287  0.001201 3719
  39.190    829.580    831.279    791.374  0.001205 3720
  39.200    832.250    832.775    791.462  0.001202 3721
  39.210    827.910    834.449    791.548  0.001208 3722
  39.220    836.980    836.286    791.635  0.001195 3723
  39.230    836.200    838.226    791.721  0.001196 3724
  39.240    841.160    840.246    791.807  0.001189 3725
  39.250    840.230    842.269    791.893  0.001190 3726
  39.260    842.610    844.285    791.978  0.001187 3727
  39.270    834.200    846.222    792.063  0.001199 3728
  39.280    845.520    848.036    792.147  0.001183 3729
  39.290    845.470    849.679    792.231  0.001183 3730
  39.300    846.310    851.140    792.315  0.001182 3731
  39.310    847.620    852.419    792.399  0.001180 3732
  39.320    852.700    853.493    792.482  0.001173 3733
  39.330    848.900    854.396    792.565  0.001178 3734
  39.340    850.350    855.178    792.647  0.001176 3735
  39.350    850.960    855.834    792.729  0.001175 3736
  39.360    856.990    856.357    792.811  0.001167 3737
  39.370    855.760    856.761    792.892  0.001169 3738
  39.380    854.420    857.080    792.973  0.001170 3739
  39.390    846.800    857.322    793.053  0.001181 3740
  39.400    854.050    857.469    793.133  0.001171 3741
  39.410    848.700    857.498    793.213  0.001178 3742
  39.420    856.390    857.433    793.292  0.001168 3743
  39.430    849.870    857.273    793.371  0.001177 3744
  39.440    854.930    856.985    793.450  0.001170 3745
  39.450    844.790    856.620    793.528  0.001184 3746
  39.460    850.430    856.151    793.606  0.001176 3747
  39.470    849.110    855.591    793.683  0.001178 3748
  39.480    851.620    854.908    793.760  0.001174 3749
  39.490    849.630    854.141    793.837  0.001177 3750
  39.500    850.630    853.314    793.913  0.001176 3751
  39.510    844.960    852.433    793.989  0.001183 3752
  39.520    845.750    851.502    794.064  0.001182 3753
  39.530    844.870    850.548    794.139  0.001184 3754
  39.540    846.350    849.584    794.213  0.001182 3755
  39.550    845.910    848.652    794.287  0.001182 3756
  39.560    844.700    847.701    794.361  0.001184 3757
  39.570    840.250    846.768    794.434  0.001190 3758
  39.580    848.370    845.868    794.507  0.001179 3759
  39.590    844.680    844.980    794.579  0.001184 3760
  39.600    846.880    844.142    794.651  0.001181 3761
  39.610    846.030    843.375    794.723  0.001182 3762
  39.620    847.150    842.657    794.794  0.001180 3763
  39.630    839.190    842.008    794.865  0.001192 3764
  39.640    844.790    841.487    794.935  0.001184 3765
  39.650    845.480    841.132    795.005  0.001183 3766
  39.660    848.830    840.907    795.074  0.001178 3767
  39.670    847.160    840.894    795.143  0.001180 3768
  39.680    851.430    841.065    795.211  0.001174 3769
  39.690    844.480    841.443    795.279  0.001184 3770
  39.700    851.110    842.031    795.347  0.001175 3771
  39.710    852.820    842.891    795.414  0.001173 3772
  39.720    855.750    843.971    795.481  0.001169 3773
  39.730    852.460    845.266    795.547  0.001173 3774
  39.740    858.010    846.780    795.613  0.001165 3775
  39.750    854.820    848.489    795.678  0.001170 3776
  39.760    860.430    850.354    795.743  0.001162 3777
  39.770    861.880    852.366    795.807  0.001160 3778
  39.780    864.490    854.520    795.871  0.001157 3779
  39.790    862.680    856.808    795.935  0.001159 3780
  39.800    873.370    859.181    795.998  0.001145 3781
  39.810    867.130    861.631    796.061  0.001153 3782
  39.820    870.450    864.138    796.123  0.001149 3783
  39.830    869.740    866.662    796.185  0.001150 3784
  39.840    879.010    869.223    796.246  0.001138 3785
  39.850    880.250    871.750    796.307  0.001136 3786
  39.860    884.500    874.197    796.367  0.001131 3787
  39.870    876.720    876.560    796.427  0.001141 3788
  39.880    885.240    878.782    796.486  0.001130 3789
  39.890    884.580    880.822    796.545  0.001130 3790
  39.900    887.190    882.674    796.604  0.001127 3791
  39.910    887.380    884.310    796.662  0.001127 3792
  39.920    890.300    885.757    796.720  0.001123 3793
  39.930    882.940    887.032    796.777  0.001133 3794
  39.940    892.820    888.143    796.834  0.001120 3795
  39.950    891.840    889.124    796.890  0.001121 3796
  39.960    895.450    890.008    796.946  0.001117 3797
  39.970    891.850    890.836    797.001  0.001121 3798
  39.980    893.090    891.613    797.056  0.001120 3799
  39.990    884.770    892.347    797.111  0.001130 3800
  40.000    890.070    893.017    797.165  0.001124 3801
  40.010    891.460    893.574    797.218  0.001122 3802
  40.020    893.560    893.988    797.271  0.001119 3803
  40.030    883.900    894.189    797.324  0.001131 3804
  40.040    885.280    894.141    797.376  0.001130 3805
  40.050    879.320    893.783    797.428  0.001137 3806
  40.060    889.330    893.117    797.479  0.001124 3807
  40.070    884.650    892.096    797.530  0.001130 3808
  40.080    883.450    890.756    797.580  0.001132 3809
  40.090    879.010    889.138    797.630  0.001138 3810
  40.100    881.560    887.301    797.680  0.001134 3811
  40.110    874.640    885.303    797.729  0.001143 3812
  40.120    875.990    883.246    797.778  0.001142 3813
  40.130    876.290    881.155    797.826  0.001141 3814
  40.140    878.010    879.149    797.874  0.001139 3815
  40.150    876.200    877.252    797.921  0.001141 3816
  40.160    876.020    875.560    797.968  0.001142 3817
  40.170    868.920    874.103    798.014  0.001151 3818
  40.180    871.460    872.912    798.060  0.001147 3819
  40.190    868.900    871.980    798.106  0.001151 3820
  40.200    878.600    871.317    798.151  0.001138 3821
  40.210    867.270    870.896    798.195  0.001153 3822
  40.220    879.240    870.697    798.240  0.001137 3823
  40.230    872.470    870.703    798.283  0.001146 3824
  40.240    877.290    870.819    798.327  0.001140 3825
  40.250    876.630    871.027    798.370  0.001141 3826
  40.260    877.240    871.319    798.412  0.001140 3827
  40.270    874.780    871.653    798.454  0.001143 3828
  40.280    875.480    872.034    798.496  0.001142 3829
  40.290    869.440    872.405    798.537  0.001150 3830
  40.300    876.620    872.837    798.578  0.001141 3831
  40.310    876.600    873.285    798.618  0.001141 3832
  40.320    880.720    873.781    798.658  0.001135 3833
  40.330    872.870    874.327    798.698  0.001146 3834
  40.340    878.990    874.869    798.737  0.001138 3835
  40.350    869.410    875.401    798.776  0.001150 3836
  40.360    877.920    875.890    798.814  0.001139 3837
  40.370    878.760    876.323    798.852  0.001138 3838
  40.380    881.220    876.624    798.889  0.001135 3839
  40.390    877.610    876.815    798.926  0.001139 3840
  40.400    879.200    876.868    798.963  0.001137 3841
  40.410    869.160    876.771    798.999  0.001151 3842
  40.420    875.790    876.564    799.035  0.001142 3843
  40.430    874.870    876.211    799.071  0.001143 3844
  40.440    877.070    875.788    799.106  0.001140 3845
  40.450    874.160    875.264    799.140  0.001144 3846
  40.460    875.370    874.685    799.175  0.001142 3847
  40.470    869.530    874.039    799.208  0.001150 3848
  40.480    876.110    873.390    799.242  0.001141 3849
  40.490    871.230    872.698    799.275  0.001148 3850
  40.500    875.610    872.016    799.308  0.001142 3851
  40.510    869.150    871.358    799.340  0.001151 3852
  40.520    877.140    870.722    799.372  0.001140 3853
  40.530    872.800    870.161    799.403  0.001146 3854
  40.540    876.690    869.635    799.435  0.001141 3855
  40.550    874.500    869.174    799.465  0.001144 3856
  40.560    875.220    868.772    799.496  0.001143 3857
  40.570    873.130    868.460    799.526  0.001145 3858
  40.580    877.400    868.225    799.555  0.001140 3859
  40.590    870.980    868.017    799.585  0.001148 3860
  40.600    872.420    867.840    799.614  0.001146 3861
  40.610    872.690    867.701    799.642  0.001146 3862
  40.620    875.450    867.547    799.670  0.001142 3863
  40.630    870.780    867.357    799.698  0.001148 3864
  40.640    872.540    867.122    799.725  0.001146 3865
  40.650    868.350    866.838    799.752  0.001152 3866
  40.660    872.120    866.478    799.779  0.001147 3867
  40.670    871.970    866.091    799.805  0.001147 3868
  40.680    873.980    865.682    799.831  0.001144 3869
  40.690    868.320    865.281    799.857  0.001152 3870
  40.700    872.620    864.934    799.882  0.001146 3871
  40.710    867.860    864.677    799.907  0.001152 3872
  40.720    874.910    864.522    799.932  0.001143 3873
  40.730    870.360    864.501    799.956  0.001149 3874
  40.740    872.170    864.637    799.980  0.001147 3875
  40.750    872.290    864.893    800.003  0.001146 3876
  40.760    877.220    865.301    800.026  0.001140 3877
  40.770    871.070    865.838    800.049  0.001148 3878
  40.780    879.690    866.477    800.072  0.001137 3879
  40.790    881.160    867.239    800.094  0.001135 3880
  40.800    883.900    868.044    800.116  0.001131 3881
  40.810    876.910    868.926    800.137  0.001140 3882
  40.820    878.520    869.837    800.158  0.001138 3883
  40.830    872.120    870.772    800.179  0.001147 3884
  40.840    876.720    871.718    800.199  0.001141 3885
  40.850    873.480    872.645    800.219  0.001145 3886
  40.860    880.880    873.553    800.239  0.001135 3887
  40.870    877.170    874.399    800.258  0.001140 3888
  40.880    878.830    875.174    800.278  0.001138 3889
  40.890    870.870    875.832    800.296  0.001148 3890
  40.900    879.700    876.371    800.315  0.001137 3891
  40.910    880.910    876.742    800.333  0.001135 3892
  40.920    880.820    876.909    800.350  0.001135 3893
  40.930    879.600    876.849    800.368  0.001137 3894
  40.940    878.360    876.563    800.385  0.001138 3895
  40.950    870.320    876.035    800.402  0.001149 3896
  40.960    875.930    875.283    800.418  0.001142 3897
  40.970    873.140    874.261    800.434  0.001145 3898
  40.980    872.200    873.043    800.450  0.001147 3899
  40.990    868.080    871.623    800.465  0.001152 3900
  41.000    868.950    870.049    800.480  0.001151 3901
  41.010    859.220    868.352    800.495  0.001164 3902
  41.020    865.790    866.572    800.510  0.001155 3903
  41.030    865.570    864.721    800.524  0.001155 3904
  41.040    866.780    862.876    800.537  0.001154 3905
  41.050    858.570    861.072    800.551  0.001165 3906
  41.060    863.170    859.362    800.564  0.001159 3907
  41.070    854.880    857.766    800.577  0.001170 3908
  41.080    855.290    856.319    800.589  0.001169 3909
  41.090    852.550    855.019    800.601  0.001173 3910
  41.100    855.760    853.873    800.613  0.001169 3911
  41.110    850.730    852.929    800.625  0.001175 3912
  41.120    855.680    852.127    800.636  0.001169 3913
  41.130    844.620    851.450    800.647  0.001184 3914
  41.140    853.970    850.882    800.657  0.001171 3915
  41.150    853.210    850.410    800.667  0.001172 3916
  41.160    858.020    849.993    800.677  0.001165 3917
  41.170    852.080    849.622    800.686  0.001174 3918
  41.180    853.580    849.305    800.696  0.001172 3919
  41.190    845.010    849.002    800.704  0.001183 3920
  41.200    852.230    848.751    800.713  0.001173 3921
  41.210    849.780    848.513    800.721  0.001177 3922
  41.220    854.970    848.290    800.729  0.001170 3923
  41.230    850.380    848.087    800.736  0.001176 3924
  41.240    853.990    847.905    800.743  0.001171 3925
  41.250    847.840    847.784    800.750  0.001179 3926
  41.260    851.120    847.705    800.756  0.001175 3927
  41.270    849.290    847.674    800.762  0.001177 3928
  41.280    854.800    847.737    800.768  0.001170 3929
  41.290    850.880    847.888    800.773  0.001175 3930
  41.300    851.750    848.090    800.778  0.001174 3931
  41.310    846.690    848.375    800.783  0.001181 3932
  41.320    856.240    848.694    800.787  0.001168 3933
  41.330    852.280    849.120    800.791  0.001173 3934
  41.340    858.660    849.596    800.795  0.001165 3935
  41.350    860.140    850.135    800.798  0.001163 3936
  41.360    862.990    850.738    800.801  0.001159 3937
  41.370    852.380    851.362    800.803  0.001173 3938
  41.380    854.450    852.031    800.805  0.001170 3939
  41.390    857.650    852.735    800.807  0.001166 3940
  41.400    863.770    853.448    800.808  0.001158 3941
  41.410    860.410    854.130    800.809  0.001162 3942
  41.420    864.290    854.815    800.809  0.001157 3943
  41.430    856.990    855.469    800.810  0.001167 3944
  41.440    861.660    856.113    800.809  0.001161 3945
  41.450    860.710    856.677    800.809  0.001162 3946
  41.460    868.970    857.162    800.808  0.001151 3947
  41.470    862.980    857.545    800.806  0.001159 3948
  41.480    864.910    857.798    800.804  0.001156 3949
  41.490    862.820    857.901    800.802  0.001159 3950
  41.500    864.730    857.809    800.800  0.001156 3951
  41.510    865.510    857.497    800.796  0.001155 3952
  41.520    867.290    856.987    800.793  0.001153 3953
  41.530    861.370    856.288    800.789  0.001161 3954
  41.540    865.470    855.423    800.785  0.001155 3955
  41.550    857.780    854.397    800.780  0.001166 3956
  41.560    862.750    853.252    800.775  0.001159 3957
  41.570    856.190    852.058    800.769  0.001168 3958
  41.580    859.760    850.810    800.763  0.001163 3959
  41.590    853.210    849.616    800.757  0.001172 3960
  41.600    859.190    848.444    800.750  0.001164 3961
  41.610    849.740    847.361    800.743  0.001177 3962
  41.620    852.020    846.392    800.735  0.001174 3963
  41.630    850.910    845.554    800.726  0.001175 3964
  41.640    853.710    844.805    800.718  0.001171 3965
  41.650    850.980    844.198    800.709  0.001175 3966
  41.660    855.550    843.740    800.699  0.001169 3967
  41.670    848.430    843.391    800.689  0.001179 3968
  41.680    853.260    843.163    800.678  0.001172 3969
  41.690    852.310    843.051    800.667  0.001173 3970
  41.700    856.570    843.046    800.655  0.001167 3971
  41.710    854.420    843.139    800.643  0.001170 3972
  41.720    858.680    843.321    800.631  0.001165 3973
  41.730    848.940    843.599    800.618  0.001178 3974
  41.740    858.070    843.915    800.604  0.001165 3975
  41.750    855.130    844.302    800.590  0.001169 3976
  41.760    858.240    844.740    800.576  0.001165 3977
  41.770    854.360    845.186    800.561  0.001170 3978
  41.780    856.160    845.704    800.545  0.001168 3979
  41.790    848.930    846.229    800.529  0.001178 3980
  41.800    855.770    846.777    800.512  0.001169 3981
  41.810    853.530    847.379    800.495  0.001172 3982
  41.820    856.340    847.998    800.478  0.001168 3983
  41.830    852.170    848.650    800.459  0.001173 3984
  41.840    855.210    849.342    800.441  0.001169 3985
  41.850    849.310    850.074    800.421  0.001177 3986
  41.860    856.740    850.855    800.401  0.001167 3987
  41.870    860.240    851.686    800.381  0.001162 3988
  41.880    863.930    852.598    800.360  0.001158 3989
  41.890    860.550    853.588    800.339  0.001162 3990
  41.900    864.660    854.645    800.317  0.001157 3991
  41.910    861.880    855.797    800.294  0.001160 3992
  41.920    864.880    857.005    800.271  0.001156 3993
  41.930    859.800    858.268    800.247  0.001163 3994
  41.940    863.180    859.520    800.223  0.001159 3995
  41.950    859.650    860.763    800.198  0.001163 3996
  41.960    865.330    861.962    800.172  0.001156 3997
  41.970    860.630    863.090    800.146  0.001162 3998
  41.980    862.710    864.092    800.119  0.001159 3999
  41.990    866.510    865.002    800.092  0.001154 4000
  42.000    869.890    865.774    800.064  0.001150 4001
  42.010    865.360    866.402    800.036  0.001156 4002
  42.020    868.860    866.867    800.006  0.001151 4003
  42.030    862.350    867.134    799.977  0.001160 4004
  42.040    869.680    867.240    799.946  0.001150 4005
  42.050    867.870    867.182    799.915  0.001152 4006
  42.060    870.360    866.971    799.884  0.001149 4007
  42.070    863.780    866.638    799.852  0.001158 4008
  42.080    869.500    866.210    799.819  0.001150 4009
  42.090    861.440    865.677    799.785  0.001161 4010
  42.100    859.960    865.108    799.751  0.001163 4011
  42.110    863.390    864.552    799.717  0.001158 4012
  42.120    866.680    863.971    799.681  0.001154 4013
  42.130    863.940    863.419    799.645  0.001157 4014
  42.140    867.530    862.906    799.609  0.001153 4015
  42.150    858.250    862.409    799.572  0.001165 4016
  42.160    867.140    861.950    799.534  0.001153 4017
  42.170    862.020    861.544    799.495  0.001160 4018
  42.180    868.860    861.191    799.456  0.001151 4019
  42.190    863.040    860.907    799.416  0.001159 4020
  42.200    865.340    860.653    799.376  0.001156 4021
  42.210    856.720    860.490    799.335  0.001167 4022
  42.220    862.850    860.411    799.293  0.001159 4023
  42.230    861.190    860.422    799.251  0.001161 4024
  42.240    861.550    860.488    799.208  0.001161 4025
  42.250    860.540    860.580    799.164  0.001162 4026
  42.260    864.440    860.729    799.120  0.001157 4027
  42.270    857.330    860.916    799.075  0.001166 4028
  42.280    860.520    861.071    799.029  0.001162 4029
  42.290    857.070    861.208    798.983  0.001167 4030
  42.300    857.630    861.315    798.936  0.001166 4031
  42.310    855.900    861.343    798.888  0.001168 4032
  42.320    859.260    861.282    798.840  0.001164 4033
  42.330    853.120    861.157    798.791  0.001172 4034
  42.340    856.410    860.903    798.742  0.001168 4035
  42.350    857.750    860.563    798.692  0.001166 4036
  42.360    861.930    860.164    798.641  0.001160 4037
  42.370    859.330    859.689    798.589  0.001164 4038
  42.380    860.440    859.222    798.537  0.001162 4039
  42.390    851.940    858.714    798.485  0.001174 4040
  42.400    855.810    858.198    798.431  0.001168 4041
  42.410    852.350    857.680    798.377  0.001173 4042
  42.420    858.100    857.165    798.322  0.001165 4043
  42.430    851.000    856.682    798.267  0.001175 4044
  42.440    855.720    856.216    798.211  0.001169 4045
  42.450    846.200    855.795    798.155  0.001182 4046
  42.460    856.880    855.382    798.098  0.001167 4047
  42.470    851.660    855.007    798.040  0.001174 4048
  42.480    857.500    854.669    797.982  0.001166 4049
  42.490    852.800    854.353    797.923  0.001173 4050
  42.500    855.390    854.106    797.863  0.001169 4051
  42.510    849.570    853.883    797.803  0.001177 4052
  42.520    851.580    853.723    797.742  0.001174 4053
  42.530    853.370    853.590    797.680  0.001172 4054
  42.540    855.240    853.572    797.618  0.001169 4055
  42.550    852.030    853.670    797.556  0.001174 4056
  42.560    855.920    853.876    797.493  0.001168 4057
  42.570    852.170    854.175    797.429  0.001173 4058
  42.580    855.430    854.609    797.364  0.001169 4059
  42.590    853.350    855.145    797.300  0.001172 4060
  42.600    857.580    855.810    797.234  0.001166 4061
  42.610    856.000    856.578    797.168  0.001168 4062
  42.620    858.860    857.403    797.101  0.001164 4063
  42.630    852.240    858.328    797.034  0.001173 4064
  42.640    859.040    859.340    796.967  0.001164 4065
  42.650    860.330    860.436    796.898  0.001162 4066
  42.660    866.960    861.653    796.830  0.001153 4067
  42.670    868.060    862.929    796.760  0.001152 4068
  42.680    866.580    864.270    796.690  0.001154 4069
  42.690    863.080    865.683    796.620  0.001159 4070
  42.700    868.780    867.153    796.549  0.001151 4071
  42.710    869.010    868.635    796.478  0.001151 4072
  42.720    871.420    870.088    796.406  0.001148 4073
  42.730    870.020    871.500    796.334  0.001149 4074
  42.740    878.850    872.815    796.261  0.001138 4075
  42.750    871.680    873.998    796.188  0.001147 4076
  42.760    874.240    874.983    796.114  0.001144 4077
  42.770    870.160    875.741    796.040  0.001149 4078
  42.780    875.930    876.240    795.965  0.001142 4079
  42.790    875.850    876.481    795.890  0.001142 4080
  42.800    877.510    876.419    795.815  0.001140 4081
  42.810    870.950    876.100    795.739  0.001148 4082
  42.820    873.660    875.506    795.663  0.001145 4083
  42.830    868.340    874.690    795.586  0.001152 4084
  42.840    873.850    873.673    795.509  0.001144 4085
  42.850    866.460    872.541    795.431  0.001154 4086
  42.860    872.310    871.331    795.353  0.001146 4087
  42.870    863.820    870.088    795.275  0.001158 4088
  42.880    869.000    868.824    795.196  0.001151 4089
  42.890    862.890    867.599    795.118  0.001159 4090
  42.900    866.780    866.429    795.038  0.001154 4091
  42.910    861.310    865.314    794.959  0.001161 4092
  42.920    863.460    864.290    794.879  0.001158 4093
  42.930    853.860    863.330    794.798  0.001171 4094
  42.940    857.790    862.470    794.718  0.001166 4095
  42.950    856.450    861.671    794.637  0.001168 4096
  42.960    861.370    860.944    794.556  0.001161 4097
  42.970    858.090    860.280    794.474  0.001165 4098
  42.980    863.550    859.644    794.393  0.001158 4099
  42.990    857.120    859.060    794.311  0.001167 4100
  43.000    859.570    858.486    794.229  0.001163 4101
  43.010    857.530    857.983    794.146  0.001166 4102
  43.020    860.400    857.489    794.064  0.001162 4103
  43.030    852.730    857.011    793.981  0.001173 4104
  43.040    856.380    856.548    793.898  0.001168 4105
  43.050    851.230    856.068    793.815  0.001175 4106
  43.060    855.350    855.575    793.731  0.001169 4107
  43.070    852.540    855.056    793.648  0.001173 4108
  43.080    854.230    854.453    793.564  0.001171 4109
  43.090    851.330    853.828    793.480  0.001175 4110
  43.100    850.220    853.143    793.396  0.001176 4111
  43.110    844.320    852.424    793.312  0.001184 4112
  43.120    847.490    851.690    793.228  0.001180 4113
  43.130    845.760    850.924    793.143  0.001182 4114
  43.140    851.520    850.141    793.059  0.001174 4115
  43.150    844.320    849.359    792.974  0.001184 4116
  43.160    846.240    848.590    792.890  0.001182 4117
  43.170    842.560    847.863    792.805  0.001187 4118
  43.180    843.230    847.116    792.721  0.001186 4119
  43.190    843.010    846.362    792.636  0.001186 4120
  43.200    846.730    845.607    792.551  0.001181 4121
  43.210    841.540    844.828    792.466  0.001188 4122
  43.220    844.310    844.023    792.381  0.001184 4123
  43.230    837.570    843.162    792.297  0.001194 4124
  43.240    843.840    842.248    792.212  0.001185 4125
  43.250    842.230    841.294    792.127  0.001187 4126
  43.260    843.130    840.278    792.042  0.001186 4127
  43.270    838.330    839.237    791.958  0.001193 4128
  43.280    844.780    838.190    791.873  0.001184 4129
  43.290    834.360    837.164    791.789  0.001199 4130
  43.300    840.650    836.190    791.704  0.001190 4131
  43.310    838.540    835.292    791.620  0.001193 4132
  43.320    842.860    834.457    791.535  0.001186 4133
  43.330    833.900    833.742    791.451  0.001199 4134
  43.340    842.620    833.128    791.367  0.001187 4135
  43.350    831.820    832.641    791.283  0.001202 4136
  43.360    840.780    832.257    791.200  0.001189 4137
  43.370    836.790    832.015    791.116  0.001195 4138
  43.380    842.510    831.921    791.033  0.001187 4139
  43.390    838.130    831.909    790.949  0.001193 4140
  43.400    840.310    832.059    790.866  0.001190 4141
  43.410    838.360    832.338    790.783  0.001193 4142
  43.420    841.630    832.768    790.701  0.001188 4143
  43.430    838.480    833.375    790.618  0.001193 4144
  43.440    842.240    834.102    790.536  0.001187 4145
  43.450    841.560    834.968    790.454  0.001188 4146
  43.460    846.140    835.988    790.372  0.001182 4147
  43.470    841.910    837.136    790.291  0.001188 4148
  43.480    848.080    838.410    790.209  0.001179 4149
  43.490    844.390    839.803    790.128  0.001184 4150
  43.500    853.660    841.262    790.048  0.001171 4151
  43.510    849.300    842.791    789.967  0.001177 4152
  43.520    852.290    844.306    789.887  0.001173 4153
  43.530    847.620    845.777    789.807  0.001180 4154
  43.540    853.820    847.126    789.728  0.001171 4155
  43.550    857.870    848.263    789.649  0.001166 4156
  43.560    858.770    849.168    789.570  0.001164 4157
  43.570    860.640    849.718    789.492  0.001162 4158
  43.580    862.900    849.938    789.414  0.001159 4159
  43.590    855.000    849.792    789.336  0.001170 4160
  43.600    856.480    849.277    789.258  0.001168 4161
  43.610    855.190    848.449    789.182  0.001169 4162
  43.620    853.910    847.323    789.105  0.001171 4163
  43.630    850.490    845.941    789.029  0.001176 4164
  43.640    855.080    844.409    788.953  0.001169 4165
  43.650    847.620    842.733    788.878  0.001180 4166
  43.660    851.100    840.970    788.803  0.001175 4167
  43.670    847.080    839.217    788.728  0.001181 4168
  43.680    848.900    837.507    788.654  0.001178 4169
  43.690    841.600    835.838    788.581  0.001188 4170
  43.700    845.950    834.255    788.507  0.001182 4171
  43.710    839.800    832.761    788.435  0.001191 4172
  43.720    843.740    831.407    788.363  0.001185 4173
  43.730    840.490    830.162    788.291  0.001190 4174
  43.740    840.210    829.059    788.220  0.001190 4175
  43.750    838.680    828.105    788.149  0.001192 4176
  43.760    842.040    827.263    788.079  0.001188 4177
  43.770    832.460    826.544    788.009  0.001201 4178
  43.780    839.480    825.959    787.940  0.001191 4179
  43.790    834.980    825.489    787.871  0.001198 4180
  43.800    841.590    825.085    787.803  0.001188 4181
  43.810    835.030    824.766    787.735  0.001198 4182
  43.820    838.200    824.534    787.668  0.001193 4183
  43.830    831.840    824.353    787.601  0.001202 4184
  43.840    835.890    824.249    787.535  0.001196 4185
  43.850    835.200    824.198    787.470  0.001197 4186
  43.860    835.320    824.186    787.405  0.001197 4187
  43.870    834.950    824.224    787.341  0.001198 4188
  43.880    836.850    824.302    787.277  0.001195 4189
  43.890    829.770    824.458    787.214  0.001205 4190
  43.900    840.610    824.608    787.152  0.001190 4191
  43.910    836.400    824.813    787.090  0.001196 4192
  43.920    837.500    825.039    787.028  0.001194 4193
  43.930    836.880    825.281    786.968  0.001195 4194
  43.940    838.270    825.527    786.907  0.001193 4195
  43.950    829.950    825.760    786.848  0.001205 4196
  43.960    834.820    825.977    786.789  0.001198 4197
  43.970    831.050    826.151    786.731  0.001203 4198
  43.980    835.480    826.348    786.673  0.001197 4199
  43.990    832.280    826.541    786.616  0.001202 4200
  44.000    832.800    826.750    786.560  0.001201 4201
  44.010    831.470    826.978    786.504  0.001203 4202
  44.020    835.220    827.235    786.449  0.001197 4203
  44.030    835.640    827.524    786.395  0.001197 4204
  44.040    841.930    827.911    786.341  0.001188 4205
  44.050    836.500    828.349    786.289  0.001195 4206
  44.060    841.430    828.847    786.237  0.001188 4207
  44.070    833.880    829.395    786.185  0.001199 4208
  44.080    832.890    830.038    786.134  0.001201 4209
  44.090    834.800    830.707    786.084  0.001198 4210
  44.100    838.680    831.414    786.035  0.001192 4211
  44.110    834.750    832.153    785.986  0.001198 4212
  44.120    839.000    832.893    785.937  0.001192 4213
  44.130    833.830    833.628    785.890  0.001199 4214
  44.140    841.280    834.355    785.843  0.001189 4215
  44.150    838.620    835.049    785.797  0.001192 4216
  44.160    841.970    835.691    785.752  0.001188 4217
  44.170    838.580    836.277    785.707  0.001192 4218
  44.180    841.670    836.810    785.663  0.001188 4219
  44.190    829.900    837.264    785.620  0.001205 4220
  44.200    839.250    837.681    785.601  0.001192 4221
  44.210    839.430    838.011    785.560  0.001191 4222
  44.220    845.820    838.252    785.519  0.001182 4223
  44.230    842.040    838.434    785.480  0.001188 4224
  44.240    847.240    838.572    785.441  0.001180 4225
  44.250    840.040    838.680    785.404  0.001190 4226
  44.260    846.500    838.745    785.367  0.001181 4227
  44.270    841.700    838.770    785.330  0.001188 4228
  44.280    846.390    838.816    785.295  0.001181 4229
  44.290    844.760    838.830    785.260  0.001184 4230
  44.300    844.770    838.838    785.227  0.001184 4231
  44.310    838.040    838.825    785.194  0.001193 4232
  44.320    844.040    838.763    785.162  0.001185 4233
  44.330    842.650    838.675    785.131  0.001187 4234
  44.340    840.310    838.544    785.101  0.001190 4235
  44.350    840.650    838.369    785.071  0.001190 4236
  44.360    842.300    838.138    785.043  0.001187 4237
  44.370    833.090    837.879    785.016  0.001200 4238
  44.380    837.090    837.564    784.989  0.001195 4239
  44.390    836.190    837.208    784.964  0.001196 4240
  44.400    841.700    836.774    784.939  0.001188 4241
  44.410    837.440    836.274    784.916  0.001194 4242
  44.420    838.140    835.698    784.893  0.001193 4243
  44.430    833.110    835.040    784.872  0.001200 4244
  44.440    836.510    834.306    784.852  0.001195 4245
  44.450    832.770    833.508    784.833  0.001201 4246
  44.460    833.780    832.597    784.816  0.001199 4247
  44.470    828.320    831.649    784.800  0.001207 4248
  44.480    834.970    830.677    784.785  0.001198 4249
  44.490    827.350    829.688    784.773  0.001209 4250
  44.500    831.740    828.712    784.762  0.001202 4251
  44.510    827.920    827.771    784.753  0.001208 4252
  44.520    830.260    826.908    784.746  0.001204 4253
  44.530    825.760    826.072    784.743  0.001211 4254
  44.540    830.690    825.337    784.743  0.001204 4255
  44.550    825.730    824.716    784.748  0.001211 4256
  44.560    828.690    824.138    784.759  0.001207 4257
  44.570    826.330    823.668    784.778  0.001210 4258
  44.580    827.270    823.244    784.811  0.001209 4259
  44.590    825.360    822.930    784.865  0.001212 4260
  44.600    826.630    822.687    784.958  0.001210 4261
  44.610    816.210    822.556    785.132  0.001225 4262
  44.620    823.020    822.635    785.487  0.001215 4263
  44.630    828.240    823.091    786.213  0.001207 4264
  44.640    838.140    823.545    786.894  0.001193 4265
  44.650    827.690    822.684    786.276  0.001208 4266
  44.660    827.040    821.810    785.617  0.001209 4267
  44.670    817.020    821.293    785.336  0.001224 4268
  44.680    823.570    820.984    785.250  0.001214 4269
  44.690    819.640    820.780    785.263  0.001220 4270
  44.700    820.380    820.679    785.345  0.001219 4271
  44.710    820.670    820.645    785.492  0.001219 4272
  44.720    823.820    820.720    785.718  0.001214 4273
  44.730    816.810    820.904    786.057  0.001224 4274
  44.740    820.410    821.260    786.573  0.001219 4275
  44.750    825.860    821.995    787.391  0.001211 4276
  44.760    832.470    823.282    788.764  0.001201 4277
  44.770    830.330    825.717    791.233  0.001204 4278
  44.780    838.620    830.412    795.926  0.001192 4279
  44.790    840.880    838.617    804.056  0.001189 4280
  44.800    847.270    844.801    810.114  0.001180 4281
  44.810    837.660    834.439    799.593  0.001194 4282
  44.820    831.690    826.291    791.240  0.001202 4283
  44.830    827.050    823.276    787.989  0.001209 4284
  44.840    829.750    822.127    786.574  0.001205 4285
  44.850    821.250    821.713    785.859  0.001218 4286
  44.860    825.870    821.594    785.456  0.001211 4287
  44.870    827.570    821.645    785.210  0.001208 4288
  44.880    826.150    821.749    785.051  0.001210 4289
  44.890    828.030    821.874    784.945  0.001208 4290
  44.900    830.240    821.979    784.872  0.001204 4291
  44.910    818.930    822.055    784.822  0.001221 4292
  44.920    823.670    822.068    784.787  0.001214 4293
  44.930    822.720    822.020    784.763  0.001215 4294
  44.940    825.210    821.911    784.748  0.001212 4295
  44.950    821.010    821.753    784.739  0.001218 4296
  44.960    821.980    821.532    784.736  0.001217 4297
  44.970    815.510    821.275    784.736  0.001226 4298
  44.980    821.900    821.046    784.740  0.001217 4299
  44.990    820.040    820.797    784.747  0.001219 4300
  45.000    819.710    820.532    784.756  0.001220 4301
  45.010    819.320    820.290    784.768  0.001221 4302
  45.020    821.870    820.071    784.781  0.001217 4303
  45.030    815.820    819.901    784.796  0.001226 4304
  45.040    817.570    819.781    784.813  0.001223 4305
  45.050    816.660    819.699    784.831  0.001224 4306
  45.060    819.670    819.658    784.850  0.001220 4307
  45.070    816.220    819.651    784.871  0.001225 4308
  45.080    819.910    819.679    784.893  0.001220 4309
  45.090    815.460    819.731    784.915  0.001226 4310
  45.100    818.440    819.775    784.939  0.001222 4311
  45.110    818.820    819.793    784.964  0.001221 4312
  45.120    819.160    819.819    784.990  0.001221 4313
  45.130    816.210    819.795    785.017  0.001225 4314
  45.140    819.600    819.732    785.045  0.001220 4315
  45.150    814.750    819.615    785.073  0.001227 4316
  45.160    820.770    819.469    785.102  0.001218 4317
  45.170    814.950    819.274    785.133  0.001227 4318
  45.180    819.380    819.026    785.164  0.001220 4319
  45.190    812.970    818.769    785.196  0.001230 4320
  45.200    820.140    818.504    785.228  0.001219 4321
  45.210    813.310    818.283    785.262  0.001230 4322
  45.220    820.030    818.071    785.282  0.001219 4323
  45.230    816.470    817.917    785.317  0.001225 4324
  45.240    821.190    817.842    785.352  0.001218 4325
  45.250    819.750    817.851    785.389  0.001220 4326
  45.260    821.050    817.956    785.424  0.001218 4327
  45.270    815.530    818.192    785.462  0.001226 4328
  45.280    822.830    818.569    785.501  0.001215 4329
  45.290    821.830    819.064    785.540  0.001217 4330
  45.300    825.160    819.718    785.579  0.001212 4331
  45.310    826.270    820.501    785.620  0.001210 4332
  45.320    826.330    821.417    785.661  0.001210 4333
  45.330    820.290    822.428    785.702  0.001219 4334
  45.340    826.800    823.545    785.745  0.001209 4335
  45.350    826.000    824.712    785.788  0.001211 4336
  45.360    829.760    825.886    785.831  0.001205 4337
  45.370    829.950    827.059    785.875  0.001205 4338
  45.380    830.520    828.208    785.920  0.001204 4339
  45.390    825.560    829.253    785.965  0.001211 4340
  45.400    830.680    830.167    786.011  0.001204 4341
  45.410    830.320    830.940    786.057  0.001204 4342
  45.420    835.020    831.568    786.094  0.001198 4343
  45.430    831.340    832.000    786.142  0.001203 4344
  45.440    833.980    832.294    786.190  0.001199 4345
  45.450    824.590    832.432    786.238  0.001213 4346
  45.460    833.040    832.470    786.288  0.001200 4347
  45.470    829.660    832.436    786.337  0.001205 4348
  45.480    832.600    832.365    786.387  0.001201 4349
  45.490    828.600    832.244    786.438  0.001207 4350
  45.500    835.990    832.194    786.488  0.001196 4351
  45.510    827.170    832.163    786.540  0.001209 4352
  45.520    831.340    832.231    786.592  0.001203 4353
  45.530    830.510    832.394    786.644  0.001204 4354
  45.540    834.180    832.637    786.696  0.001199 4355
  45.550    829.630    832.984    786.749  0.001205 4356
  45.560    835.350    833.422    786.802  0.001197 4357
  45.570    829.890    833.934    786.856  0.001205 4358
  45.580    837.760    834.540    786.910  0.001194 4359
  45.590    835.850    835.209    786.964  0.001196 4360
  45.600    839.250    835.940    787.019  0.001192 4361
  45.610    836.900    836.719    787.073  0.001195 4362
  45.620    839.260    837.520    787.129  0.001192 4363
  45.630    832.280    838.345    787.184  0.001202 4364
  45.640    840.940    839.172    787.240  0.001189 4365
  45.650    839.990    839.944    787.295  0.001190 4366
  45.660    845.030    840.673    787.352  0.001183 4367
  45.670    838.350    841.311    787.408  0.001193 4368
  45.680    839.630    841.821    787.464  0.001191 4369
  45.690    834.760    842.183    787.521  0.001198 4370
  45.700    840.570    842.409    787.578  0.001190 4371
  45.710    838.510    842.479    787.635  0.001193 4372
  45.720    844.270    842.395    787.692  0.001184 4373
  45.730    838.250    842.123    787.749  0.001193 4374
  45.740    836.420    841.721    787.807  0.001196 4375
  45.750    832.910    841.188    787.864  0.001201 4376
  45.760    840.110    840.561    787.921  0.001190 4377
  45.770    837.590    839.831    787.979  0.001194 4378
  45.780    839.720    839.097    788.036  0.001191 4379
  45.790    835.430    838.349    788.094  0.001197 4380
  45.800    834.250    837.621    788.152  0.001199 4381
  45.810    826.180    836.908    788.209  0.001210 4382
  45.820    830.770    836.260    788.266  0.001204 4383
  45.830    831.450    835.682    788.324  0.001203 4384
  45.840    835.620    835.213    788.381  0.001197 4385
  45.850    832.010    834.863    788.438  0.001202 4386
  45.860    836.770    834.660    788.496  0.001195 4387
  45.870    832.870    834.591    788.553  0.001201 4388
  45.880    837.050    834.706    788.609  0.001195 4389
  45.890    837.320    834.976    788.666  0.001194 4390
  45.900    841.630    835.444    788.722  0.001188 4391
  45.910    838.270    836.073    788.779  0.001193 4392
  45.920    844.180    836.876    788.835  0.001185 4393
  45.930    836.440    837.849    788.890  0.001196 4394
  45.940    846.470    838.986    788.946  0.001181 4395
  45.950    847.040    840.255    789.001  0.001181 4396
  45.960    847.460    841.652    789.056  0.001180 4397
  45.970    842.270    843.140    789.111  0.001187 4398
  45.980    848.600    844.735    789.165  0.001178 4399
  45.990    848.390    846.439    789.219  0.001179 4400
  46.000    857.820    848.171    789.272  0.001166 4401
  46.010    851.390    849.937    789.325  0.001175 4402
  46.020    858.880    851.665    789.378  0.001164 4403
  46.030    855.200    853.384    789.430  0.001169 4404
  46.040    861.650    855.066    789.482  0.001161 4405
  46.050    857.880    856.655    789.533  0.001166 4406
  46.060    866.070    858.153    789.584  0.001155 4407
  46.070    862.190    859.490    789.634  0.001160 4408
  46.080    867.290    860.665    789.683  0.001153 4409
  46.090    865.170    861.703    789.733  0.001156 4410
  46.100    872.530    862.602    789.781  0.001146 4411
  46.110    858.030    863.366    789.829  0.001165 4412
  46.120    866.030    864.002    789.876  0.001155 4413
  46.130    865.190    864.544    789.923  0.001156 4414
  46.140    867.530    865.020    789.969  0.001153 4415
  46.150    866.790    865.445    790.014  0.001154 4416
  46.160    869.920    865.855    790.059  0.001150 4417
  46.170    867.510    866.289    790.103  0.001153 4418
  46.180    868.180    866.695    790.146  0.001152 4419
  46.190    866.990    867.125    790.188  0.001153 4420
  46.200    870.470    867.583    790.230  0.001149 4421
  46.210    868.530    868.026    790.270  0.001151 4422
  46.220    870.390    868.464    790.310  0.001149 4423
  46.230    861.880    868.829    790.349  0.001160 4424
  46.240    869.770    869.094    790.388  0.001150 4425
  46.250    869.050    869.272    790.425  0.001151 4426
  46.260    871.030    869.298    790.462  0.001148 4427
  46.270    868.200    869.163    790.497  0.001152 4428
  46.280    871.790    868.826    790.532  0.001147 4429
  46.290    861.680    868.319    790.566  0.001161 4430
  46.300    866.780    867.583    790.599  0.001154 4431
  46.310    865.770    866.614    790.631  0.001155 4432
  46.320    867.340    865.440    790.662  0.001153 4433
  46.330    862.010    864.074    790.691  0.001160 4434
  46.340    860.400    862.505    790.720  0.001162 4435
  46.350    852.690    860.710    790.748  0.001173 4436
  46.360    860.170    858.744    790.775  0.001163 4437
  46.370    851.060    856.632    790.801  0.001175 4438
  46.380    854.450    854.401    790.825  0.001170 4439
  46.390    846.360    852.100    790.849  0.001182 4440
  46.400    849.750    849.719    790.872  0.001177 4441
  46.410    840.620    847.344    790.893  0.001190 4442
  46.420    845.540    844.998    790.913  0.001183 4443
  46.430    841.420    842.730    790.932  0.001188 4444
  46.440    840.710    840.555    790.951  0.001189 4445
  46.450    836.030    838.500    790.967  0.001196 4446
  46.460    835.480    836.547    790.983  0.001197 4447
  46.470    829.330    834.717    790.998  0.001206 4448
  46.480    833.850    833.040    791.011  0.001199 4449
  46.490    829.210    831.494    791.023  0.001206 4450
  46.500    830.400    830.045    791.034  0.001204 4451
  46.510    823.580    828.738    791.044  0.001214 4452
  46.520    827.150    827.509    791.052  0.001209 4453
  46.530    819.210    826.363    791.059  0.001221 4454
  46.540    824.460    825.314    791.065  0.001213 4455
  46.550    823.340    824.391    791.070  0.001215 4456
  46.560    828.670    823.572    791.074  0.001207 4457
  46.570    820.570    822.813    791.076  0.001219 4458
  46.580    825.560    822.147    791.077  0.001211 4459
  46.590    818.380    821.561    791.077  0.001222 4460
  46.600    821.330    821.073    791.075  0.001218 4461
  46.610    820.570    820.679    791.073  0.001219 4462
  46.620    819.340    820.360    791.068  0.001220 4463
  46.630    818.950    820.120    791.063  0.001221 4464
  46.640    821.860    819.944    791.056  0.001217 4465
  46.650    817.780    819.859    791.048  0.001223 4466
  46.660    821.610    819.837    791.039  0.001217 4467
  46.670    821.300    819.855    791.029  0.001218 4468
  46.680    824.450    819.936    791.017  0.001213 4469
  46.690    820.860    820.057    791.004  0.001218 4470
  46.700    827.270    820.264    790.989  0.001209 4471
  46.710    819.640    820.509    790.974  0.001220 4472
  46.720    825.260    820.781    790.957  0.001212 4473
  46.730    823.360    821.094    790.938  0.001215 4474
  46.740    822.480    821.480    790.919  0.001216 4475
  46.750    823.380    821.907    790.898  0.001215 4476
  46.760    826.590    822.417    790.876  0.001210 4477
  46.770    821.360    822.995    790.852  0.001217 4478
  46.780    825.240    823.637    790.827  0.001212 4479
  46.790    828.060    824.335    790.801  0.001208 4480
  46.800    829.980    825.109    790.774  0.001205 4481
  46.810    829.120    825.959    790.746  0.001206 4482
  46.820    831.410    826.901    790.716  0.001203 4483
  46.830    824.320    827.901    790.685  0.001213 4484
  46.840    835.680    829.002    790.652  0.001197 4485
  46.850    833.690    830.101    790.619  0.001199 4486
  46.860    837.680    831.274    790.584  0.001194 4487
  46.870    832.830    832.481    790.548  0.001201 4488
  46.880    837.830    833.690    790.510  0.001194 4489
  46.890    832.210    834.937    790.472  0.001202 4490
  46.900    839.450    836.169    790.432  0.001191 4491
  46.910    840.700    837.359    790.391  0.001189 4492
  46.920    845.640    838.519    790.349  0.001183 4493
  46.930    843.030    839.634    790.306  0.001186 4494
  46.940    847.780    840.668    790.261  0.001180 4495
  46.950    844.160    841.608    790.216  0.001185 4496
  46.960    847.930    842.473    790.169  0.001179 4497
  46.970    846.730    843.253    790.121  0.001181 4498
  46.980    852.510    843.914    790.072  0.001173 4499
  46.990    850.400    844.426    790.021  0.001176 4500
  47.000    852.420    844.845    789.970  0.001173 4501
  47.010    843.460    845.155    789.918  0.001186 4502
  47.020    851.740    845.369    789.864  0.001174 4503
  47.030    848.800    845.476    789.809  0.001178 4504
  47.040    849.050    845.508    789.754  0.001178 4505
  47.050    848.450    845.490    789.697  0.001179 4506
  47.060    848.910    845.422    789.639  0.001178 4507
  47.070    844.240    845.303    789.580  0.001184 4508
  47.080    847.640    845.155    789.520  0.001180 4509
  47.090    849.520    845.036    789.459  0.001177 4510
  47.100    852.570    844.933    789.398  0.001173 4511
  47.110    849.470    844.876    789.335  0.001177 4512
  47.120    851.480    844.850    789.271  0.001174 4513
  47.130    847.140    844.868    789.206  0.001180 4514
  47.140    852.410    844.894    789.140  0.001173 4515
  47.150    851.130    844.931    789.074  0.001175 4516
  47.160    852.960    844.957    789.006  0.001172 4517
  47.170    846.200    845.021    788.937  0.001182 4518
  47.180    851.990    845.042    788.868  0.001174 4519
  47.190    848.850    845.040    788.798  0.001178 4520
  47.200    851.780    845.053    788.727  0.001174 4521
  47.210    854.470    845.041    788.655  0.001170 4522
  47.220    853.020    845.037    788.582  0.001172 4523
  47.230    852.800    845.082    788.508  0.001173 4524
  47.240    857.760    845.169    788.434  0.001166 4525
  47.250    845.970    845.264    788.358  0.001182 4526
  47.260    852.500    845.355    788.282  0.001173 4527
  47.270    851.520    845.429    788.206  0.001174 4528
  47.280    855.760    845.487    788.128  0.001169 4529
  47.290    854.240    845.510    788.050  0.001171 4530
  47.300    854.750    845.492    787.971  0.001170 4531
  47.310    848.020    845.390    787.891  0.001179 4532
  47.320    855.280    845.193    787.811  0.001169 4533
  47.330    854.130    844.915    787.730  0.001171 4534
  47.340    855.020    844.542    787.648  0.001170 4535
  47.350    847.500    844.048    787.566  0.001180 4536
  47.360    854.500    843.500    787.483  0.001170 4537
  47.370    846.390    842.875    787.399  0.001181 4538
  47.380    851.110    842.163    787.315  0.001175 4539
  47.390    849.670    841.405    787.230  0.001177 4540
  47.400    851.360    840.608    787.145  0.001175 4541
  47.410    843.040    839.773    787.059  0.001186 4542
  47.420    845.980    838.886    786.972  0.001182 4543
  47.430    837.700    837.994    786.885  0.001194 4544
  47.440    842.650    837.076    786.798  0.001187 4545
  47.450    841.120    836.137    786.710  0.001189 4546
  47.460    844.640    835.187    786.621  0.001184 4547
  47.470    835.970    834.276    786.532  0.001196 4548
  47.480    845.370    833.368    786.443  0.001183 4549
  47.490    832.850    832.510    786.353  0.001201 4550
  47.500    839.890    831.712    786.263  0.001191 4551
  47.510    834.810    830.983    786.172  0.001198 4552
  47.520    833.770    830.367    786.081  0.001199 4553
  47.530    830.300    829.827    785.989  0.001204 4554
  47.540    833.140    829.402    785.897  0.001200 4555
  47.550    829.140    829.051    785.805  0.001206 4556
  47.560    830.950    828.827    785.712  0.001203 4557
  47.570    834.570    828.717    785.619  0.001198 4558
  47.580    839.000    828.709    785.526  0.001192 4559
  47.590    832.620    828.816    785.432  0.001201 4560
  47.600    837.330    828.998    785.338  0.001194 4561
  47.610    829.830    829.274    785.244  0.001205 4562
  47.620    838.490    829.651    785.149  0.001193 4563
  47.630    835.970    830.054    785.054  0.001196 4564
  47.640    837.300    830.540    784.959  0.001194 4565
  47.650    832.650    831.027    784.864  0.001201 4566
  47.660    838.330    831.503    784.768  0.001193 4567
  47.670    828.710    831.984    784.672  0.001207 4568
  47.680    835.090    832.446    784.576  0.001197 4569
  47.690    835.310    832.870    784.480  0.001197 4570
  47.700    839.490    833.286    784.383  0.001191 4571
  47.710    840.950    833.642    784.286  0.001189 4572
  47.720    841.110    833.948    784.189  0.001189 4573
  47.730    838.640    834.217    784.092  0.001192 4574
  47.740    840.480    834.475    783.995  0.001190 4575
  47.750    838.360    834.709    783.897  0.001193 4576
  47.760    843.010    834.934    783.800  0.001186 4577
  47.770    837.710    835.145    783.702  0.001194 4578
  47.780    841.870    835.351    783.604  0.001188 4579
  47.790    831.660    835.597    783.506  0.001202 4580
  47.800    840.780    835.857    783.408  0.001189 4581
  47.810    839.600    836.110    783.309  0.001191 4582
  47.820    843.270    836.382    783.211  0.001186 4583
  47.830    841.140    836.645    783.113  0.001189 4584
  47.840    844.210    836.908    783.014  0.001185 4585
  47.850    834.100    837.124    782.915  0.001199 4586
  47.860    840.710    837.351    782.816  0.001189 4587
  47.870    842.030    837.523    782.717  0.001188 4588
  47.880    844.460    837.654    782.619  0.001184 4589
  47.890    842.460    837.746    782.519  0.001187 4590
  47.900    845.400    837.812    782.420  0.001183 4591
  47.910    835.680    837.836    782.321  0.001197 4592
  47.920    840.220    837.858    782.222  0.001190 4593
  47.930    841.010    837.901    782.123  0.001189 4594
  47.940    843.350    837.957    782.023  0.001186 4595
  47.950    841.390    838.025    781.924  0.001189 4596
  47.960    845.030    838.111    781.824  0.001183 4597
  47.970    842.610    838.238    781.725  0.001187 4598
  47.980    842.150    838.404    781.625  0.001187 4599
  47.990    843.590    838.597    781.526  0.001185 4600
  48.000    846.340    838.789    781.426  0.001182 4601
  48.010    840.510    838.967    781.326  0.001190 4602
  48.020    846.560    839.066    781.227  0.001181 4603
  48.030    838.990    839.106    781.127  0.001192 4604
  48.040    841.020    839.019    781.027  0.001189 4605
  48.050    840.180    838.807    780.927  0.001190 4606
  48.060    840.640    838.499    780.827  0.001190 4607
  48.070    832.800    838.001    780.728  0.001201 4608
  48.080    838.160    837.344    780.628  0.001193 4609
  48.090    827.430    836.562    780.528  0.001209 4610
  48.100    832.730    835.653    780.428  0.001201 4611
  48.110    830.240    834.631    780.327  0.001204 4612
  48.120    830.450    833.527    780.227  0.001204 4613
  48.130    828.940    832.374    780.127  0.001206 4614
  48.140    831.270    831.187    780.027  0.001203 4615
  48.150    823.190    829.996    779.927  0.001215 4616
  48.160    828.830    828.809    779.826  0.001207 4617
  48.170    828.250    827.704    779.726  0.001207 4618
  48.180    827.030    826.633    779.625  0.001209 4619
  48.190    823.750    825.637    779.525  0.001214 4620
  48.200    826.160    824.766    779.424  0.001210 4621
  48.210    818.380    823.974    779.323  0.001222 4622
  48.220    817.760    823.314    779.223  0.001223 4623
  48.230    817.640    822.751    779.122  0.001223 4624
  48.240    822.320    822.321    779.021  0.001216 4625
  48.250    818.160    821.995    778.919  0.001222 4626
  48.260    823.160    821.767    778.818  0.001215 4627
  48.270    817.580    821.648    778.717  0.001223 4628
  48.280    822.430    821.604    778.615  0.001216 4629
  48.290    819.580    821.615    778.514  0.001220 4630
  48.300    819.560    821.692    778.412  0.001220 4631
  48.310    817.220    821.821    778.310  0.001224 4632
  48.320    820.090    821.983    778.208  0.001219 4633
  48.330    818.960    822.135    778.106  0.001221 4634
  48.340    824.260    822.312    778.004  0.001213 4635
  48.350    818.920    822.459    777.901  0.001221 4636
  48.360    822.860    822.573    777.798  0.001215 4637
  48.370    819.710    822.598    777.695  0.001220 4638
  48.380    822.200    822.621    777.592  0.001216 4639
  48.390    815.610    822.578    777.489  0.001226 4640
  48.400    821.380    822.459    777.385  0.001217 4641
  48.410    820.070    822.298    777.281  0.001219 4642
  48.420    823.160    822.078    777.177  0.001215 4643
  48.430    821.690    821.821    777.073  0.001217 4644
  48.440    820.550    821.522    776.968  0.001219 4645
  48.450    819.650    821.156    776.863  0.001220 4646
  48.460    823.690    820.743    776.758  0.001214 4647
  48.470    818.540    820.319    776.652  0.001222 4648
  48.480    819.740    819.815    776.546  0.001220 4649
  48.490    817.260    819.344    776.440  0.001224 4650
  48.500    822.600    818.839    776.334  0.001216 4651
  48.510    811.420    818.350    776.227  0.001232 4652
  48.520    814.320    817.890    776.119  0.001228 4653
  48.530    816.520    817.430    776.012  0.001225 4654
  48.540    820.920    817.011    775.904  0.001218 4655
  48.550    820.150    816.589    775.795  0.001219 4656
  48.560    816.520    816.225    775.686  0.001225 4657
  48.570    809.540    815.894    775.577  0.001235 4658
  48.580    814.920    815.570    775.467  0.001227 4659
  48.590    811.970    815.257    775.357  0.001232 4660
  48.600    811.460    814.975    775.246  0.001232 4661
  48.610    811.400    814.725    775.135  0.001232 4662
  48.620    815.000    814.498    775.023  0.001227 4663
  48.630    809.630    814.288    774.911  0.001235 4664
  48.640    815.690    814.109    774.798  0.001226 4665
  48.650    816.330    813.964    774.685  0.001225 4666
  48.660    814.910    813.858    774.571  0.001227 4667
  48.670    814.650    813.788    774.456  0.001228 4668
  48.680    815.180    813.726    774.341  0.001227 4669
  48.690    808.560    813.758    774.225  0.001237 4670
  48.700    811.930    813.792    774.109  0.001232 4671
  48.710    808.560    813.848    773.992  0.001237 4672
  48.720    813.710    813.917    773.874  0.001229 4673
  48.730    811.640    814.045    773.756  0.001232 4674
  48.740    812.830    814.215    773.637  0.001230 4675
  48.750    806.200    814.404    773.517  0.001240 4676
  48.760    814.140    814.619    773.397  0.001228 4677
  48.770    810.240    814.878    773.275  0.001234 4678
  48.780    808.940    815.209    773.153  0.001236 4679
  48.790    809.320    815.528    773.030  0.001236 4680
  48.800    811.040    815.887    772.907  0.001233 4681
  48.810    804.490    816.259    772.783  0.001243 4682
  48.820    811.690    816.634    772.657  0.001232 4683
  48.830    811.000    817.028    772.531  0.001233 4684
  48.840    814.270    817.442    772.404  0.001228 4685
  48.850    815.030    817.828    772.277  0.001227 4686
  48.860    817.000    818.317    772.148  0.001224 4687
  48.870    808.590    818.763    772.019  0.001237 4688
  48.880    815.960    819.211    771.888  0.001226 4689
  48.890    812.640    819.708    771.757  0.001231 4690
  48.900    820.750    820.216    771.624  0.001218 4691
  48.910    812.840    820.743    771.491  0.001230 4692
  48.920    819.430    821.292    771.357  0.001220 4693
  48.930    813.050    821.819    771.221  0.001230 4694
  48.940    816.080    822.318    771.085  0.001225 4695
  48.950    817.650    822.800    770.948  0.001223 4696
  48.960    819.840    823.219    770.809  0.001220 4697
  48.970    815.250    823.574    770.670  0.001227 4698
  48.980    822.150    823.836    770.529  0.001216 4699
  48.990    813.820    823.978    770.388  0.001229 4700
  49.000    817.920    823.990    770.245  0.001223 4701
  49.010    820.030    823.876    770.101  0.001219 4702
  49.020    817.940    823.635    769.956  0.001223 4703
  49.030    818.290    823.276    769.810  0.001222 4704
  49.040    819.660    822.782    769.663  0.001220 4705
  49.050    811.590    822.201    769.515  0.001232 4706
  49.060    816.060    821.525    769.365  0.001225 4707
  49.070    816.400    820.784    769.214  0.001225 4708
  49.080    816.910    820.009    769.062  0.001224 4709
  49.090    813.520    819.181    768.909  0.001229 4710
  49.100    818.570    818.367    768.754  0.001222 4711
  49.110    812.450    817.552    768.598  0.001231 4712
  49.120    817.620    816.750    768.441  0.001223 4713
  49.130    812.090    815.998    768.283  0.001231 4714
  49.140    813.270    815.289    768.123  0.001230 4715
  49.150    807.270    814.605    767.962  0.001239 4716
  49.160    811.730    813.937    767.800  0.001232 4717
  49.170    805.610    813.315    767.636  0.001241 4718
  49.180    810.970    812.687    767.471  0.001233 4719
  49.190    805.550    812.084    767.305  0.001241 4720
  49.200    814.470    811.508    767.137  0.001228 4721
  49.210    806.320    810.923    766.968  0.001240 4722
  49.220    812.910    810.343    766.798  0.001230 4723
  49.230    802.500    809.728    766.626  0.001246 4724
  49.240    811.020    809.141    766.453  0.001233 4725
  49.250    807.650    808.543    766.278  0.001238 4726
  49.260    807.790    807.924    766.102  0.001238 4727
  49.270    806.090    807.285    765.924  0.001241 4728
  49.280    807.950    806.650    765.745  0.001238 4729
  49.290    802.400    806.045    765.564  0.001246 4730
  49.300    798.830    805.408    765.382  0.001252 4731
  49.310    800.240    804.824    765.199  0.001250 4732
  49.320    800.660    804.221    765.014  0.001249 4733
  49.330    797.770    803.667    764.827  0.001253 4734
  49.340    803.070    803.127    764.639  0.001245 4735
  49.350    798.240    802.626    764.450  0.001253 4736
  49.360    800.510    802.188    764.259  0.001249 4737
  49.370    799.240    801.796    764.066  0.001251 4738
  49.380    801.390    801.449    763.872  0.001248 4739
  49.390    802.160    801.149    763.676  0.001247 4740
  49.400    807.690    800.874    763.479  0.001238 4741
  49.410    799.040    800.646    763.280  0.001252 4742
  49.420    805.140    800.459    763.080  0.001242 4743
  49.430    802.000    800.297    762.878  0.001247 4744
  49.440    804.830    800.168    762.674  0.001242 4745
  49.450    802.920    800.088    762.469  0.001245 4746
  49.460    803.740    800.054    762.263  0.001244 4747
  49.470    798.720    800.007    762.054  0.001252 4748
  49.480    803.780    799.999    761.844  0.001244 4749
  49.490    802.610    799.961    761.633  0.001246 4750
  49.500    802.280    799.983    761.420  0.001246 4751
  49.510    803.880    800.000    761.205  0.001244 4752
  49.520    801.310    800.016    760.989  0.001248 4753
  49.530    799.980    800.025    760.771  0.001250 4754
  49.540    802.510    800.040    760.552  0.001246 4755
  49.550    798.090    800.048    760.331  0.001253 4756
  49.560    805.320    800.035    760.108  0.001242 4757
  49.570    803.720    800.001    759.884  0.001244 4758
  49.580    804.910    799.916    759.658  0.001242 4759
  49.590    793.020    799.807    759.430  0.001261 4760
  49.600    801.720    799.676    759.201  0.001247 4761
  49.610    796.210    799.573    758.970  0.001256 4762
  49.620    801.830    799.467    758.738  0.001247 4763
  49.630    797.390    799.391    758.504  0.001254 4764
  49.640    802.940    799.327    758.268  0.001245 4765
  49.650    797.240    799.324    758.031  0.001254 4766
  49.660    801.870    799.329    757.792  0.001247 4767
  49.670    798.980    799.411    757.552  0.001252 4768
  49.680    803.860    799.561    757.310  0.001244 4769
  49.690    802.750    799.730    757.066  0.001246 4770
  49.700    807.210    799.919    756.821  0.001239 4771
  49.710    801.150    800.141    756.574  0.001248 4772
  49.720    807.020    800.348    756.325  0.001239 4773
  49.730    801.030    800.528    756.075  0.001248 4774
  49.740    806.110    800.660    755.824  0.001241 4775
  49.750    802.640    800.761    755.571  0.001246 4776
  49.760    808.370    800.733    755.316  0.001237 4777
  49.770    797.240    800.610    755.060  0.001254 4778
  49.780    802.020    800.320    754.802  0.001247 4779
  49.790    801.210    799.944    754.542  0.001248 4780
  49.800    800.550    799.464    754.281  0.001249 4781
  49.810    797.800    798.845    754.019  0.001253 4782
  49.820    801.950    798.117    753.755  0.001247 4783
  49.830    791.950    797.328    753.489  0.001263 4784
  49.840    794.270    796.409    753.222  0.001259 4785
  49.850    789.620    795.468    752.953  0.001266 4786
  49.860    793.910    794.495    752.683  0.001260 4787
  49.870    789.070    793.509    752.412  0.001267 4788
  49.880    791.340    792.547    752.138  0.001264 4789
  49.890    780.950    791.550    751.864  0.001280 4790
  49.900    789.760    790.624    751.588  0.001266 4791
  49.910    785.920    789.704    751.310  0.001272 4792
  49.920    786.220    788.819    751.031  0.001272 4793
  49.930    787.250    787.965    750.751  0.001270 4794
  49.940    788.630    787.087    750.469  0.001268 4795
  49.950    785.210    786.280    750.185  0.001274 4796
  49.960    782.770    785.505    749.901  0.001278 4797
  49.970    782.410    784.729    749.614  0.001278 4798
  49.980    784.130    783.955    749.327  0.001275 4799
  49.990    779.570    783.200    749.038  0.001283 4800
  50.000    781.010    782.477    748.748  0.001280 4801
  50.010    777.290    781.788    748.456  0.001287 4802
  50.020    781.410    781.106    748.163  0.001280 4803
  50.030    775.840    780.451    747.869  0.001289 4804
  50.040    781.730    779.815    747.573  0.001279 4805
  50.050    780.930    779.236    747.276  0.001281 4806
  50.060    783.620    778.683    746.977  0.001276 4807
  50.070    774.900    778.167    746.678  0.001290 4808
  50.080    781.450    777.642    746.377  0.001280 4809
  50.090    776.870    777.178    746.075  0.001287 4810
  50.100    779.010    776.733    745.771  0.001284 4811
  50.110    778.140    776.318    745.467  0.001285 4812
  50.120    779.800    775.908    745.161  0.001282 4813
  50.130    775.420    775.564    744.854  0.001290 4814
  50.140    778.780    775.281    744.546  0.001284 4815
  50.150    780.410    775.034    744.236  0.001281 4816
  50.160    783.920    774.788    743.926  0.001276 4817
  50.170    776.620    774.600    743.614  0.001288 4818
  50.180    780.940    774.477    743.301  0.001281 4819
  50.190    776.810    774.416    742.987  0.001287 4820
  50.200    783.460    774.392    742.672  0.001276 4821
  50.210    782.710    774.377    742.356  0.001278 4822
  50.220    785.910    774.373    742.038  0.001272 4823
  50.230    782.680    774.411    741.720  0.001278 4824
  50.240    785.040    774.437    741.401  0.001274 4825
  50.250    778.290    774.445    741.080  0.001285 4826
  50.260    779.260    774.475    740.759  0.001283 4827
  50.270    780.390    774.516    740.436  0.001281 4828
  50.280    785.290    774.589    740.113  0.001273 4829
  50.290    779.350    774.650    739.788  0.001283 4830
  50.300    780.060    774.705    739.463  0.001282 4831
  50.310    778.320    774.788    739.137  0.001285 4832
  50.320    780.780    774.895    738.809  0.001281 4833
  50.330    779.320    774.997    738.481  0.001283 4834
  50.340    780.880    775.137    738.152  0.001281 4835
  50.350    779.680    775.323    737.822  0.001283 4836
  50.360    781.530    775.547    737.491  0.001280 4837
  50.370    778.470    775.812    737.160  0.001285 4838
  50.380    779.540    776.104    736.827  0.001283 4839
  50.390    779.960    776.382    736.494  0.001282 4840
  50.400    782.590    776.698    736.160  0.001278 4841
  50.410    777.010    777.025    735.825  0.001287 4842
  50.420    784.380    777.365    735.490  0.001275 4843
  50.430    776.610    777.708    735.153  0.001288 4844
  50.440    783.160    778.024    734.816  0.001277 4845
  50.450    781.360    778.291    734.478  0.001280 4846
  50.460    784.480    778.527    734.140  0.001275 4847
  50.470    782.530    778.722    733.801  0.001278 4848
  50.480    782.810    778.846    733.461  0.001277 4849
  50.490    774.700    778.907    733.121  0.001291 4850
  50.500    782.520    778.902    732.779  0.001278 4851
  50.510    779.410    778.833    732.438  0.001283 4852
  50.520    782.250    778.665    732.095  0.001278 4853
  50.530    779.200    778.419    731.753  0.001283 4854
  50.540    779.310    778.123    731.409  0.001283 4855
  50.550    773.270    777.710    731.065  0.001293 4856
  50.560    776.940    777.268    730.721  0.001287 4857
  50.570    776.200    776.710    730.376  0.001288 4858
  50.580    777.400    776.087    730.030  0.001286 4859
  50.590    771.040    775.367    729.684  0.001297 4860
  50.600    773.630    774.610    729.338  0.001293 4861
  50.610    766.540    773.759    728.991  0.001305 4862
  50.620    769.930    772.872    728.643  0.001299 4863
  50.630    765.880    771.972    728.296  0.001306 4864
  50.640    769.370    770.991    727.947  0.001300 4865
  50.650    766.590    769.964    727.599  0.001304 4866
  50.660    767.130    768.927    727.250  0.001304 4867
  50.670    759.190    767.854    726.901  0.001317 4868
  50.680    767.420    766.775    726.551  0.001303 4869
  50.690    761.930    765.694    726.201  0.001312 4870
  50.700    764.250    764.653    725.851  0.001308 4871
  50.710    762.290    763.625    725.500  0.001312 4872
  50.720    766.670    762.660    725.150  0.001304 4873
  50.730    760.940    761.767    724.799  0.001314 4874
  50.740    760.860    760.929    724.447  0.001314 4875
  50.750    761.510    760.133    724.096  0.001313 4876
  50.760    763.190    759.400    723.744  0.001310 4877
  50.770    761.160    758.811    723.392  0.001314 4878
  50.780    760.090    758.253    723.040  0.001316 4879
  50.790    757.870    757.775    722.688  0.001319 4880
  50.800    760.930    757.373    722.335  0.001314 4881
  50.810    758.030    757.011    721.983  0.001319 4882
  50.820    754.900    756.723    721.630  0.001325 4883
  50.830    756.110    756.514    721.277  0.001323 4884
  50.840    759.750    756.370    720.924  0.001316 4885
  50.850    751.620    756.239    720.571  0.001330 4886
  50.860    757.630    756.193    720.218  0.001320 4887
  50.870    760.710    756.177    719.865  0.001315 4888
  50.880    759.610    756.200    719.512  0.001316 4889
  50.890    754.260    756.266    719.159  0.001326 4890
  50.900    758.080    756.381    718.806  0.001319 4891
  50.910    752.330    756.532    718.453  0.001329 4892
  50.920    759.920    756.691    718.099  0.001316 4893
  50.930    759.380    756.886    717.746  0.001317 4894
  50.940    761.790    757.139    717.393  0.001313 4895
  50.950    754.620    757.420    717.040  0.001325 4896
  50.960    761.980    757.737    716.687  0.001312 4897
  50.970    753.340    758.087    716.334  0.001327 4898
  50.980    762.930    758.451    715.982  0.001311 4899
  50.990    762.690    758.852    715.629  0.001311 4900
  51.000    762.620    759.256    715.276  0.001311 4901
  51.010    758.750    759.653    714.924  0.001318 4902
  51.020    765.790    760.076    714.572  0.001306 4903
  51.030    757.350    760.460    714.219  0.001320 4904
  51.040    763.300    760.803    713.867  0.001310 4905
  51.050    762.460    761.112    713.516  0.001312 4906
  51.060    767.940    761.357    713.164  0.001302 4907
  51.070    765.390    761.575    712.813  0.001307 4908
  51.080    765.820    761.712    712.461  0.001306 4909
  51.090    759.620    761.777    712.110  0.001316 4910
  51.100    763.680    761.803    711.760  0.001309 4911
  51.110    761.750    761.768    711.409  0.001313 4912
  51.120    768.150    761.691    711.059  0.001302 4913
  51.130    762.550    761.559    710.709  0.001311 4914
  51.140    767.920    761.355    710.359  0.001302 4915
  51.150    756.520    761.083    710.010  0.001322 4916
  51.160    764.650    760.748    709.661  0.001308 4917
  51.170    761.300    760.309    709.312  0.001314 4918
  51.180    762.690    759.776    708.963  0.001311 4919
  51.190    760.670    759.137    708.615  0.001315 4920
  51.200    762.140    758.412    708.267  0.001312 4921
  51.210    756.720    757.548    707.919  0.001321 4922
  51.220    753.170    756.567    707.572  0.001328 4923
  51.230    750.630    755.483    707.225  0.001332 4924
  51.240    753.940    754.302    706.879  0.001326 4925
  51.250    751.990    753.068    706.533  0.001330 4926
  51.260    751.960    751.733    706.187  0.001330 4927
  51.270    746.450    750.389    705.842  0.001340 4928
  51.280    748.750    748.992    705.497  0.001336 4929
  51.290    748.970    747.609    705.152  0.001335 4930
  51.300    750.610    746.256    704.808  0.001332 4931
  51.310    746.090    744.905    704.464  0.001340 4932
  51.320    743.190    743.555    704.121  0.001346 4933
  51.330    738.870    742.253    703.778  0.001353 4934
  51.340    742.990    741.007    703.436  0.001346 4935
  51.350    742.670    739.828    703.094  0.001346 4936
  51.360    741.260    738.679    702.753  0.001349 4937
  51.370    742.730    737.589    702.412  0.001346 4938
  51.380    739.730    736.549    702.071  0.001352 4939
  51.390    735.380    735.550    701.731  0.001360 4940
  51.400    739.850    734.670    701.391  0.001352 4941
  51.410    738.370    733.803    701.052  0.001354 4942
  51.420    740.460    733.000    700.714  0.001351 4943
  51.430    737.920    732.271    700.376  0.001355 4944
  51.440    739.780    731.607    700.038  0.001352 4945
  51.450    731.380    731.002    699.701  0.001367 4946
  51.460    736.050    730.485    699.364  0.001359 4947
  51.470    733.050    730.058    699.028  0.001364 4948
  51.480    738.930    729.673    698.693  0.001353 4949
  51.490    736.720    729.343    698.358  0.001357 4950
  51.500    738.400    729.084    698.023  0.001354 4951
  51.510    731.070    728.924    697.689  0.001368 4952
  51.520    734.200    728.825    697.356  0.001362 4953
  51.530    734.970    728.778    697.023  0.001361 4954
  51.540    737.930    728.779    696.691  0.001355 4955
  51.550    730.920    728.858    696.359  0.001368 4956
  51.560    736.120    728.938    696.028  0.001358 4957
  51.570    729.410    729.093    695.697  0.001371 4958
  51.580    735.800    729.236    695.367  0.001359 4959
  51.590    731.160    729.397    695.038  0.001368 4960
  51.600    734.970    729.534    694.709  0.001361 4961
  51.610    730.120    729.651    694.381  0.001370 4962
  51.620    735.090    729.698    694.053  0.001360 4963
  51.630    728.580    729.685    693.726  0.001373 4964
  51.640    732.510    729.629    693.399  0.001365 4965
  51.650    729.930    729.516    693.074  0.001370 4966
  51.660    734.540    729.342    692.748  0.001361 4967
  51.670    729.180    729.141    692.423  0.001371 4968
  51.680    731.520    728.878    692.099  0.001367 4969
  51.690    725.210    728.617    691.776  0.001379 4970
  51.700    732.080    728.323    691.453  0.001366 4971
  51.710    728.630    728.005    691.130  0.001372 4972
  51.720    731.830    727.687    690.809  0.001366 4973
  51.730    728.770    727.363    690.488  0.001372 4974
  51.740    727.590    727.031    690.167  0.001374 4975
  51.750    723.050    726.699    689.847  0.001383 4976
  51.760    724.540    726.370    689.528  0.001380 4977
  51.770    726.490    725.998    689.209  0.001376 4978
  51.780    728.840    725.586    688.891  0.001372 4979
  51.790    725.620    725.156    688.574  0.001378 4980
  51.800    728.930    724.663    688.257  0.001372 4981
  51.810    719.820    724.132    687.941  0.001389 4982
  51.820    726.130    723.553    687.625  0.001377 4983
  51.830    725.090    722.938    687.310  0.001379 4984
  51.840    725.630    722.260    686.996  0.001378 4985
  51.850    722.750    721.557    686.683  0.001384 4986
  51.860    722.870    720.866    686.369  0.001383 4987
  51.870    718.260    720.140    686.057  0.001392 4988
  51.880    723.610    719.389    685.745  0.001382 4989
  51.890    716.980    718.651    685.434  0.001395 4990
  51.900    721.080    717.916    685.124  0.001387 4991
  51.910    718.840    717.201    684.814  0.001391 4992
  51.920    721.650    716.522    684.504  0.001386 4993
  51.930    711.820    715.875    684.196  0.001405 4994
  51.940    720.910    715.241    683.888  0.001387 4995
  51.950    719.590    714.650    683.580  0.001390 4996
  51.960    720.350    714.072    683.274  0.001388 4997
  51.970    720.030    713.544    682.967  0.001389 4998
  51.980    718.720    713.034    682.662  0.001391 4999
  51.990    712.120    712.542    682.357  0.001404 5000
  52.000    719.570    712.089    682.053  0.001390 5001
  52.010    714.540    711.648    681.749  0.001400 5002
  52.020    720.250    711.244    681.446  0.001388 5003
  52.030    715.320    710.832    681.144  0.001398 5004
  52.040    715.070    710.459    680.842  0.001398 5005
  52.050    709.040    710.108    680.541  0.001410 5006
  52.060    713.250    709.800    680.241  0.001402 5007
  52.070    714.390    709.519    679.941  0.001400 5008
  52.080    714.120    709.234    679.642  0.001400 5009
  52.090    713.980    708.986    679.343  0.001401 5010
  52.100    714.160    708.755    679.045  0.001400 5011
  52.110    710.120    708.548    678.748  0.001408 5012
  52.120    714.730    708.384    678.451  0.001399 5013
  52.130    712.590    708.229    678.155  0.001403 5014
  52.140    716.230    708.089    677.860  0.001396 5015
  52.150    715.490    707.962    677.565  0.001398 5016
  52.160    717.240    707.834    677.271  0.001394 5017
  52.170    712.770    707.692    676.977  0.001403 5018
  52.180    716.880    707.575    676.684  0.001395 5019
  52.190    713.690    707.469    676.392  0.001401 5020
  52.200    714.610    707.366    676.100  0.001399 5021
  52.210    711.420    707.285    675.809  0.001406 5022
  52.220    713.170    707.180    675.518  0.001402 5023
  52.230    710.050    707.073    675.228  0.001408 5024
  52.240    712.630    706.997    674.939  0.001403 5025
  52.250    712.590    706.935    674.651  0.001403 5026
  52.260    712.700    706.890    674.363  0.001403 5027
  52.270    714.800    706.856    674.075  0.001399 5028
  52.280    714.550    706.862    673.788  0.001399 5029
  52.290    708.700    706.880    673.502  0.001411 5030
  52.300    709.980    706.917    673.216  0.001408 5031
  52.310    709.230    706.981    672.931  0.001410 5032
  52.320    714.220    707.048    672.647  0.001400 5033
  52.330    709.180    707.101    672.363  0.001410 5034
  52.340    715.040    707.194    672.080  0.001399 5035
  52.350    711.400    707.250    671.797  0.001406 5036
  52.360    712.520    707.290    671.515  0.001403 5037
  52.370    709.550    707.315    671.234  0.001409 5038
  52.380    715.770    707.313    670.953  0.001397 5039
  52.390    710.360    707.285    670.673  0.001408 5040
  52.400    716.080    707.229    670.394  0.001396 5041
  52.410    708.580    707.114    670.115  0.001411 5042
  52.420    716.810    706.958    669.836  0.001395 5043
  52.430    711.860    706.762    669.558  0.001405 5044
  52.440    708.860    706.560    669.281  0.001411 5045
  52.450    707.750    706.326    669.005  0.001413 5046
  52.460    711.190    706.034    668.729  0.001406 5047
  52.470    702.990    705.728    668.453  0.001422 5048
  52.480    707.740    705.412    668.178  0.001413 5049
  52.490    705.910    705.054    667.904  0.001417 5050
  52.500    710.610    704.663    667.630  0.001407 5051
  52.510    705.570    704.301    667.357  0.001417 5052
  52.520    705.440    703.930    667.085  0.001418 5053
  52.530    702.550    703.549    666.813  0.001423 5054
  52.540    704.510    703.140    666.542  0.001419 5055
  52.550    706.480    702.741    666.271  0.001415 5056
  52.560    705.940    702.315    666.001  0.001417 5057
  52.570    705.380    701.891    665.731  0.001418 5058
  52.580    705.850    701.459    665.462  0.001417 5059
  52.590    702.640    701.004    665.194  0.001423 5060
  52.600    701.990    700.583    664.926  0.001425 5061
  52.610    698.390    700.141    664.659  0.001432 5062
  52.620    699.680    699.696    664.392  0.001429 5063
  52.630    702.360    699.251    664.126  0.001424 5064
  52.640    700.990    698.818    663.861  0.001427 5065
  52.650    697.190    698.379    663.596  0.001434 5066
  52.660    700.390    697.943    663.331  0.001428 5067
  52.670    696.660    697.507    663.068  0.001435 5068
  52.680    700.020    697.091    662.805  0.001429 5069
  52.690    698.500    696.693    662.542  0.001432 5070
  52.700    697.910    696.283    662.280  0.001433 5071
  52.710    695.440    695.862    662.018  0.001438 5072
  52.720    696.600    695.471    661.758  0.001436 5073
  52.730    698.850    695.069    661.497  0.001431 5074
  52.740    699.790    694.705    661.238  0.001429 5075
  52.750    695.570    694.363    660.978  0.001438 5076
  52.760    697.530    694.014    660.720  0.001434 5077
  52.770    693.710    693.677    660.462  0.001442 5078
  52.780    697.430    693.353    660.204  0.001434 5079
  52.790    694.900    693.066    659.948  0.001439 5080
  52.800    699.750    692.766    659.691  0.001429 5081
  52.810    692.970    692.524    659.436  0.001443 5082
  52.820    701.040    692.272    659.181  0.001426 5083
  52.830    693.660    692.041    658.926  0.001442 5084
  52.840    698.210    691.850    658.672  0.001432 5085
  52.850    697.280    691.678    658.419  0.001434 5086
  52.860    701.530    691.512    658.166  0.001425 5087
  52.870    698.820    691.330    657.914  0.001431 5088
  52.880    702.310    691.168    657.662  0.001424 5089
  52.890    694.720    691.010    657.411  0.001439 5090
  52.900    696.180    690.884    657.160  0.001436 5091
  52.910    695.520    690.740    656.910  0.001438 5092
  52.920    698.870    690.578    656.661  0.001431 5093
  52.930    694.340    690.447    656.412  0.001440 5094
  52.940    702.160    690.335    656.164  0.001424 5095
  52.950    691.440    690.228    655.916  0.001446 5096
  52.960    693.610    690.114    655.669  0.001442 5097
  52.970    691.780    690.058    655.423  0.001446 5098
  52.980    699.310    690.059    655.177  0.001430 5099
  52.990    696.530    690.051    654.931  0.001436 5100
  53.000    696.470    690.098    654.687  0.001436 5101
  53.010    693.860    690.192    654.442  0.001441 5102
  53.020    697.720    690.341    654.199  0.001433 5103
  53.030    696.660    690.526    653.956  0.001435 5104
  53.040    696.760    690.770    653.713  0.001435 5105
  53.050    694.230    691.035    653.471  0.001440 5106
  53.060    695.720    691.333    653.230  0.001437 5107
  53.070    690.440    691.678    652.989  0.001448 5108
  53.080    696.900    692.035    652.749  0.001435 5109
  53.090    694.770    692.408    652.510  0.001439 5110
  53.100    692.840    692.771    652.271  0.001443 5111
  53.110    692.230    693.138    652.032  0.001445 5112
  53.120    697.230    693.522    651.794  0.001434 5113
  53.130    694.010    693.879    651.557  0.001441 5114
  53.140    696.740    694.251    651.320  0.001435 5115
  53.150    694.830    694.593    651.084  0.001439 5116
  53.160    696.570    694.923    650.849  0.001436 5117
  53.170    695.780    695.217    650.614  0.001437 5118
  53.180    699.350    695.502    650.380  0.001430 5119
  53.190    692.800    695.741    650.146  0.001443 5120
  53.200    696.180    695.946    649.913  0.001436 5121
  53.210    698.890    696.100    649.680  0.001431 5122
  53.220    697.490    696.264    649.448  0.001434 5123
  53.230    697.560    696.361    649.217  0.001434 5124
  53.240    698.830    696.446    648.986  0.001431 5125
  53.250    695.370    696.545    648.756  0.001438 5126
  53.260    698.820    696.615    648.526  0.001431 5127
  53.270    696.600    696.682    648.297  0.001436 5128
  53.280    701.310    696.760    648.068  0.001426 5129
  53.290    696.560    696.829    647.841  0.001436 5130
  53.300    702.140    696.934    647.613  0.001424 5131
  53.310    697.350    697.041    647.387  0.001434 5132
  53.320    699.530    697.147    647.160  0.001430 5133
  53.330    696.560    697.244    646.935  0.001436 5134
  53.340    701.860    697.333    646.710  0.001425 5135
  53.350    699.460    697.420    646.486  0.001430 5136
  53.360    703.990    697.472    646.262  0.001420 5137
  53.370    699.400    697.464    646.039  0.001430 5138
  53.380    702.270    697.411    645.816  0.001424 5139
  53.390    700.050    697.271    645.594  0.001428 5140
  53.400    703.610    697.026    645.373  0.001421 5141
  53.410    698.950    696.699    645.152  0.001431 5142
  53.420    701.320    696.291    644.932  0.001426 5143
  53.430    694.300    695.790    644.713  0.001440 5144
  53.440    697.250    695.210    644.494  0.001434 5145
  53.450    696.670    694.546    644.275  0.001435 5146
  53.460    699.530    693.851    644.058  0.001430 5147
  53.470    697.440    693.117    643.840  0.001434 5148
  53.480    700.630    692.350    643.624  0.001427 5149
  53.490    691.180    691.572    643.408  0.001447 5150
  53.500    694.340    690.800    643.193  0.001440 5151
  53.510    692.400    690.037    642.978  0.001444 5152
  53.520    693.040    689.288    642.764  0.001443 5153
  53.530    688.510    688.562    642.550  0.001452 5154
  53.540    691.960    687.852    642.337  0.001445 5155
  53.550    688.570    687.181    642.125  0.001452 5156
  53.560    688.070    686.508    641.913  0.001453 5157
  53.570    687.780    685.891    641.702  0.001454 5158
  53.580    689.210    685.311    641.491  0.001451 5159
  53.590    684.830    684.737    641.281  0.001460 5160
  53.600    687.120    684.188    641.072  0.001455 5161
  53.610    683.610    683.673    640.863  0.001463 5162
  53.620    685.660    683.161    640.647  0.001458 5163
  53.630    683.680    682.729    640.440  0.001463 5164
  53.640    686.750    682.317    640.233  0.001456 5165
  53.650    684.620    681.958    640.027  0.001461 5166
  53.660    685.310    681.650    639.821  0.001459 5167
  53.670    680.240    681.389    639.616  0.001470 5168
  53.680    687.690    681.181    639.411  0.001454 5169
  53.690    684.480    681.017    639.208  0.001461 5170
  53.700    687.360    680.956    639.004  0.001455 5171
  53.710    686.380    680.911    638.802  0.001457 5172
  53.720    690.510    680.921    638.600  0.001448 5173
  53.730    683.050    680.947    638.398  0.001464 5174
  53.740    689.360    680.968    638.197  0.001451 5175
  53.750    684.580    681.004    637.997  0.001461 5176
  53.760    690.870    681.059    637.798  0.001447 5177
  53.770    685.040    681.096    637.599  0.001460 5178
  53.780    690.610    681.113    637.400  0.001448 5179
  53.790    683.510    681.110    637.202  0.001463 5180
  53.800    688.950    681.050    637.005  0.001451 5181
  53.810    682.520    680.970    636.809  0.001465 5182
  53.820    686.470    680.830    636.613  0.001457 5183
  53.830    681.110    680.620    636.417  0.001468 5184
  53.840    686.300    680.350    636.223  0.001457 5185
  53.850    680.540    680.032    636.028  0.001469 5186
  53.860    683.600    679.633    635.835  0.001463 5187
  53.870    677.940    679.195    635.642  0.001475 5188
  53.880    683.160    678.723    635.450  0.001464 5189
  53.890    679.040    678.216    635.258  0.001473 5190
  53.900    680.260    677.691    635.067  0.001470 5191
  53.910    674.120    677.150    634.876  0.001483 5192
  53.920    677.940    676.582    634.686  0.001475 5193
  53.930    675.320    676.040    634.497  0.001481 5194
  53.940    680.210    675.535    634.309  0.001470 5195
  53.950    675.560    675.069    634.120  0.001480 5196
  53.960    677.590    674.593    633.933  0.001476 5197
  53.970    673.650    674.182    633.746  0.001484 5198
  53.980    674.630    673.818    633.560  0.001482 5199
  53.990    671.330    673.506    633.374  0.001490 5200
  54.000    673.890    673.249    633.189  0.001484 5201
  54.010    674.340    673.040    633.005  0.001483 5202
  54.020    676.130    672.891    632.821  0.001479 5203
  54.030    669.350    672.842    632.638  0.001494 5204
  54.040    674.210    672.823    632.455  0.001483 5205
  54.050    670.910    672.878    632.273  0.001491 5206
  54.060    678.110    673.000    632.092  0.001475 5207
  54.070    672.360    673.160    631.911  0.001487 5208
  54.080    673.930    673.341    631.731  0.001484 5209
  54.090    670.110    673.588    631.551  0.001492 5210
  54.100    674.520    673.874    631.372  0.001483 5211
  54.110    670.020    674.221    631.194  0.001492 5212
  54.120    675.290    674.574    631.016  0.001481 5213
  54.130    672.830    674.924    630.839  0.001486 5214
  54.140    679.550    675.276    630.662  0.001472 5215
  54.150    669.780    675.632    630.486  0.001493 5216
  54.160    676.980    675.999    630.310  0.001477 5217
  54.170    673.670    676.378    630.136  0.001484 5218
  54.180    678.060    676.703    629.961  0.001475 5219
  54.190    676.830    677.005    629.788  0.001477 5220
  54.200    678.200    677.259    629.615  0.001474 5221
  54.210    677.010    677.492    629.442  0.001477 5222
  54.220    677.840    677.684    629.270  0.001475 5223
  54.230    677.620    677.816    629.099  0.001476 5224
  54.240    680.560    677.893    628.928  0.001469 5225
  54.250    677.120    677.913    628.758  0.001477 5226
  54.260    678.660    677.889    628.589  0.001473 5227
  54.270    671.760    677.846    628.420  0.001489 5228
  54.280    678.400    677.747    628.252  0.001474 5229
  54.290    676.810    677.619    628.084  0.001478 5230
  54.300    677.820    677.412    627.917  0.001475 5231
  54.310    674.140    677.192    627.750  0.001483 5232
  54.320    678.080    676.910    627.584  0.001475 5233
  54.330    672.550    676.605    627.419  0.001487 5234
  54.340    677.210    676.235    627.254  0.001477 5235
  54.350    676.330    675.792    627.090  0.001479 5236
  54.360    675.660    675.327    626.926  0.001480 5237
  54.370    677.850    674.805    626.763  0.001475 5238
  54.380    676.430    674.206    626.601  0.001478 5239
  54.390    670.850    673.577    626.439  0.001491 5240
  54.400    673.420    672.864    626.278  0.001485 5241
  54.410    672.340    672.113    626.117  0.001487 5242
  54.420    676.370    671.358    625.957  0.001478 5243
  54.430    671.300    670.561    625.797  0.001490 5244
  54.440    671.740    669.777    625.638  0.001489 5245
  54.450    662.780    668.955    625.480  0.001509 5246
  54.460    668.500    668.157    625.322  0.001496 5247
  54.470    667.220    667.334    625.164  0.001499 5248
  54.480    668.720    666.535    625.008  0.001495 5249
  54.490    664.220    665.708    624.852  0.001506 5250
  54.500    664.380    664.857    624.696  0.001505 5251
  54.510    663.330    663.982    624.541  0.001508 5252
  54.520    662.230    663.112    624.387  0.001510 5253
  54.530    663.790    662.187    624.233  0.001507 5254
  54.540    662.440    661.227    624.079  0.001510 5255
  54.550    659.380    660.273    623.927  0.001517 5256
  54.560    662.630    659.291    623.774  0.001509 5257
  54.570    655.360    658.279    623.623  0.001526 5258
  54.580    658.510    657.271    623.472  0.001519 5259
  54.590    654.010    656.208    623.321  0.001529 5260
  54.600    655.580    655.194    623.171  0.001525 5261
  54.610    652.000    654.184    623.022  0.001534 5262
  54.620    654.140    653.205    622.873  0.001529 5263
  54.630    649.130    652.248    622.725  0.001541 5264
  54.640    650.060    651.321    622.577  0.001538 5265
  54.650    651.020    650.460    622.430  0.001536 5266
  54.660    653.460    649.659    622.283  0.001530 5267
  54.670    650.680    648.891    622.137  0.001537 5268
  54.680    652.420    648.178    621.992  0.001533 5269
  54.690    644.350    647.532    621.847  0.001552 5270
  54.700    651.240    646.951    621.702  0.001536 5271
  54.710    646.770    646.398    621.559  0.001546 5272
  54.720    648.820    645.908    621.415  0.001541 5273
  54.730    642.140    645.461    621.272  0.001557 5274
  54.740    642.260    645.073    621.130  0.001557 5275
  54.750    641.940    644.714    620.989  0.001558 5276
  54.760    648.800    644.412    620.847  0.001541 5277
  54.770    645.090    644.164    620.707  0.001550 5278
  54.780    645.190    643.978    620.567  0.001550 5279
  54.790    644.150    643.806    620.427  0.001552 5280
  54.800    644.570    643.683    620.288  0.001551 5281
  54.810    639.170    643.610    620.150  0.001565 5282
  54.820    643.650    643.547    620.012  0.001554 5283
  54.830    642.180    643.553    619.874  0.001557 5284
  54.840    645.690    643.588    619.738  0.001549 5285
  54.850    645.070    643.637    619.601  0.001550 5286
  54.860    644.010    643.707    619.466  0.001553 5287
  54.870    644.400    643.868    619.330  0.001552 5288
  54.880    647.930    644.028    619.196  0.001543 5289
  54.890    647.510    644.235    619.061  0.001544 5290
  54.900    651.550    644.434    618.928  0.001535 5291
  54.910    646.920    644.651    618.794  0.001546 5292
  54.920    650.310    644.887    618.662  0.001538 5293
  54.930    644.050    645.137    618.530  0.001553 5294
  54.940    646.210    645.375    618.398  0.001547 5295
  54.950    646.520    645.613    618.267  0.001547 5296
  54.960    647.460    645.827    618.137  0.001544 5297
  54.970    649.010    646.028    618.006  0.001541 5298
  54.980    649.750    646.221    617.877  0.001539 5299
  54.990    645.840    646.391    617.748  0.001548 5300
  55.000    650.080    646.496    617.619  0.001538 5301
  55.010    647.430    646.561    617.491  0.001545 5302
  55.020    652.690    646.594    617.364  0.001532 5303
  55.030    644.730    646.583    617.237  0.001551 5304
  55.040    648.390    646.547    617.111  0.001542 5305
  55.050    646.270    646.473    616.985  0.001547 5306
  55.060    647.000    646.344    616.859  0.001546 5307
  55.070    645.530    646.173    616.734  0.001549 5308
  55.080    649.440    645.982    616.610  0.001540 5309
  55.090    646.120    645.765    616.486  0.001548 5310
  55.100    652.160    645.525    616.363  0.001533 5311
  55.110    642.130    645.277    616.240  0.001557 5312
  55.120    644.400    644.998    616.117  0.001552 5313
  55.130    642.620    644.718    615.995  0.001556 5314
  55.140    649.110    644.442    615.874  0.001541 5315
  55.150    644.120    644.157    615.753  0.001553 5316
  55.160    651.340    643.876    615.633  0.001535 5317
  55.170    643.550    643.613    615.513  0.001554 5318
  55.180    644.460    643.371    615.393  0.001552 5319
  55.190    646.220    643.095    615.274  0.001547 5320
  55.200    643.970    642.883    615.156  0.001553 5321
  55.210    642.040    642.662    615.038  0.001558 5322
  55.220    647.380    642.461    614.920  0.001545 5323
  55.230    641.440    642.276    614.803  0.001559 5324
  55.240    646.610    642.115    614.687  0.001547 5325
  55.250    642.960    642.001    614.571  0.001555 5326
  55.260    645.530    641.913    614.455  0.001549 5327
  55.270    642.840    641.844    614.340  0.001556 5328
  55.280    645.120    641.817    614.226  0.001550 5329
  55.290    640.520    641.844    614.112  0.001561 5330
  55.300    644.920    641.917    613.998  0.001551 5331
  55.310    646.190    641.994    613.885  0.001548 5332
  55.320    648.330    642.133    613.772  0.001542 5333
  55.330    644.060    642.270    613.660  0.001553 5334
  55.340    648.070    642.449    613.548  0.001543 5335
  55.350    642.500    642.648    613.437  0.001556 5336
  55.360    645.500    642.878    613.326  0.001549 5337
  55.370    644.640    643.077    613.216  0.001551 5338
  55.380    648.630    643.269    613.106  0.001542 5339
  55.390    645.240    643.471    612.997  0.001550 5340
  55.400    650.470    643.668    612.888  0.001537 5341
  55.410    644.220    643.867    612.780  0.001552 5342
  55.420    647.320    644.060    612.672  0.001545 5343
  55.430    642.900    644.253    612.564  0.001555 5344
  55.440    646.430    644.450    612.457  0.001547 5345
  55.450    645.570    644.611    612.351  0.001549 5346
  55.460    647.550    644.771    612.245  0.001544 5347
  55.470    642.550    644.970    612.139  0.001556 5348
  55.480    648.330    645.162    612.034  0.001542 5349
  55.490    645.110    645.342    611.929  0.001550 5350
  55.500    647.090    645.532    611.825  0.001545 5351
  55.510    644.010    645.713    611.721  0.001553 5352
  55.520    645.370    645.925    611.618  0.001549 5353
  55.530    641.290    646.141    611.515  0.001559 5354
  55.540    645.210    646.388    611.413  0.001550 5355
  55.550    644.740    646.625    611.311  0.001551 5356
  55.560    647.190    646.916    611.209  0.001545 5357
  55.570    643.690    647.169    611.108  0.001554 5358
  55.580    650.360    647.417    611.008  0.001538 5359
  55.590    640.780    647.655    610.908  0.001561 5360
  55.600    648.610    647.885    610.808  0.001542 5361
  55.610    646.790    648.080    610.709  0.001546 5362
  55.620    650.900    648.244    610.610  0.001536 5363
  55.630    648.960    648.372    610.512  0.001541 5364
  55.640    651.450    648.468    610.414  0.001535 5365
  55.650    643.940    648.508    610.316  0.001553 5366
  55.660    645.930    648.532    610.219  0.001548 5367
  55.670    645.480    648.475    610.123  0.001549 5368
  55.680    648.300    648.379    610.026  0.001542 5369
  55.690    642.360    648.239    609.931  0.001557 5370
  55.700    645.450    648.052    609.836  0.001549 5371
  55.710    643.650    647.863    609.741  0.001554 5372
  55.720    643.400    647.669    609.646  0.001554 5373
  55.730    647.050    647.437    609.552  0.001545 5374
  55.740    645.120    647.190    609.459  0.001550 5375
  55.750    644.410    646.945    609.366  0.001552 5376
  55.760    645.000    646.681    609.273  0.001550 5377
  55.770    640.280    646.417    609.181  0.001562 5378
  55.780    641.910    646.195    609.089  0.001558 5379
  55.790    639.650    645.969    608.998  0.001563 5380
  55.800    644.300    645.739    608.907  0.001552 5381
  55.810    643.770    645.521    608.816  0.001553 5382
  55.820    646.590    645.330    608.726  0.001547 5383
  55.830    639.480    645.159    608.637  0.001564 5384
  55.840    641.340    645.046    608.548  0.001559 5385
  55.850    639.540    644.931    608.459  0.001564 5386
  55.860    642.530    644.826    608.370  0.001556 5387
  55.870    640.690    644.730    608.283  0.001561 5388
  55.880    646.070    644.672    608.195  0.001548 5389
  55.890    639.970    644.620    608.108  0.001563 5390
  55.900    641.410    644.584    608.021  0.001559 5391
  55.910    643.800    644.581    607.935  0.001553 5392
  55.920    643.380    644.594    607.849  0.001554 5393
  55.930    641.540    644.618    607.764  0.001559 5394
  55.940    644.330    644.659    607.679  0.001552 5395
  55.950    638.950    644.695    607.594  0.001565 5396
  55.960    643.070    644.753    607.510  0.001555 5397
  55.970    641.740    644.776    607.426  0.001558 5398
  55.980    644.710    644.822    607.343  0.001551 5399
  55.990    641.130    644.879    607.260  0.001560 5400
  56.000    645.020    644.956    607.178  0.001550 5401
  56.010    639.280    645.024    607.096  0.001564 5402
  56.020    644.670    645.078    607.014  0.001551 5403
  56.030    641.130    645.158    606.933  0.001560 5404
  56.040    645.810    645.184    606.852  0.001548 5405
  56.050    641.790    645.232    606.771  0.001558 5406
  56.060    645.870    645.274    606.691  0.001548 5407
  56.070    639.370    645.298    606.612  0.001564 5408
  56.080    647.070    645.313    606.532  0.001545 5409
  56.090    647.640    645.308    606.454  0.001544 5410
  56.100    647.520    645.302    606.375  0.001544 5411
  56.110    647.480    645.302    606.297  0.001544 5412
  56.120    647.270    645.310    606.220  0.001545 5413
  56.130    644.730    645.295    606.142  0.001551 5414
  56.140    647.660    645.319    606.066  0.001544 5415
  56.150    643.900    645.353    605.989  0.001553 5416
  56.160    648.260    645.373    605.913  0.001543 5417
  56.170    644.460    645.434    605.837  0.001552 5418
  56.180    646.470    645.510    605.762  0.001547 5419
  56.190    642.490    645.576    605.687  0.001556 5420
  56.200    647.400    645.711    605.613  0.001545 5421
  56.210    648.770    645.850    605.539  0.001541 5422
  56.220    650.460    646.054    605.465  0.001537 5423
  56.230    648.030    646.275    605.392  0.001543 5424
  56.240    650.710    646.563    605.319  0.001537 5425
  56.250    648.480    646.866    605.247  0.001542 5426
  56.260    650.000    647.203    605.175  0.001538 5427
  56.270    648.690    647.569    605.103  0.001542 5428
  56.280    651.840    647.981    605.032  0.001534 5429
  56.290    647.860    648.403    604.961  0.001544 5430
  56.300    653.300    648.802    604.890  0.001531 5431
  56.310    648.960    649.235    604.820  0.001541 5432
  56.320    652.630    649.668    604.751  0.001532 5433
  56.330    650.500    650.112    604.681  0.001537 5434
  56.340    654.270    650.530    604.612  0.001528 5435
  56.350    648.440    650.945    604.544  0.001542 5436
  56.360    652.500    651.306    604.476  0.001533 5437
  56.370    644.220    651.644    604.408  0.001552 5438
  56.380    651.680    651.912    604.340  0.001534 5439
  56.390    647.980    652.142    604.273  0.001543 5440
  56.400    651.600    652.298    604.207  0.001535 5441
  56.410    650.860    652.412    604.140  0.001536 5442
  56.420    652.690    652.479    604.074  0.001532 5443
  56.430    648.140    652.498    604.009  0.001543 5444
  56.440    650.000    652.447    603.944  0.001538 5445
  56.450    649.540    652.339    603.879  0.001540 5446
  56.460    649.110    652.174    603.815  0.001541 5447
  56.470    646.360    651.967    603.751  0.001547 5448
  56.480    651.180    651.697    603.687  0.001536 5449
  56.490    643.260    651.359    603.624  0.001555 5450
  56.500    647.170    650.988    603.561  0.001545 5451
  56.510    648.700    650.597    603.498  0.001542 5452
  56.520    647.890    650.154    603.436  0.001543 5453
  56.530    644.310    649.676    603.374  0.001552 5454
  56.540    648.900    649.200    603.313  0.001541 5455
  56.550    642.270    648.719    603.252  0.001557 5456
  56.560    647.190    648.262    603.191  0.001545 5457
  56.570    644.220    647.795    603.131  0.001552 5458
  56.580    647.510    647.344    603.071  0.001544 5459
  56.590    645.420    646.913    603.011  0.001549 5460
  56.600    646.940    646.547    602.952  0.001546 5461
  56.610    639.500    646.196    602.893  0.001564 5462
  56.620    642.750    645.853    602.834  0.001556 5463
  56.630    641.590    645.570    602.776  0.001559 5464
  56.640    643.940    645.310    602.718  0.001553 5465
  56.650    640.970    645.092    602.661  0.001560 5466
  56.660    642.500    644.916    602.604  0.001556 5467
  56.670    639.600    644.778    602.547  0.001563 5468
  56.680    641.810    644.652    602.491  0.001558 5469
  56.690    641.920    644.521    602.435  0.001558 5470
  56.700    643.120    644.399    602.379  0.001555 5471
  56.710    641.380    644.287    602.324  0.001559 5472
  56.720    643.830    644.151    602.269  0.001553 5473
  56.730    637.080    644.004    602.214  0.001570 5474
  56.740    642.660    643.885    602.160  0.001556 5475
  56.750    639.740    643.730    602.106  0.001563 5476
  56.760    645.080    643.540    602.052  0.001550 5477
  56.770    642.150    643.320    601.999  0.001557 5478
  56.780    643.830    643.088    601.946  0.001553 5479
  56.790    640.420    642.823    601.894  0.001561 5480
  56.800    641.820    642.508    601.841  0.001558 5481
  56.810    638.950    642.146    601.790  0.001565 5482
  56.820    641.460    641.789    601.738  0.001559 5483
  56.830    639.790    641.370    601.687  0.001563 5484
  56.840    639.240    640.920    601.636  0.001564 5485
  56.850    637.390    640.461    601.586  0.001569 5486
  56.860    639.480    639.974    601.535  0.001564 5487
  56.870    639.040    639.472    601.486  0.001565 5488
  56.880    641.770    638.929    601.436  0.001558 5489
  56.890    635.600    638.358    601.387  0.001573 5490
  56.900    639.940    637.759    601.338  0.001563 5491
  56.910    631.550    637.163    601.290  0.001583 5492
  56.920    638.690    636.553    601.241  0.001566 5493
  56.930    636.490    635.968    601.193  0.001571 5494
  56.940    639.080    635.384    601.146  0.001565 5495
  56.950    636.080    634.741    601.099  0.001572 5496
  56.960    636.580    634.159    601.052  0.001571 5497
  56.970    630.290    633.577    601.005  0.001587 5498
  56.980    635.080    633.025    600.959  0.001575 5499
  56.990    631.380    632.520    600.913  0.001584 5500
  57.000    630.840    632.075    600.868  0.001585 5501
  57.010    631.090    631.604    600.822  0.001585 5502
  57.020    630.930    631.161    600.777  0.001585 5503
  57.030    624.960    630.775    600.733  0.001600 5504
  57.040    629.350    630.429    600.688  0.001589 5505
  57.050    629.620    630.140    600.644  0.001588 5506
  57.060    630.080    629.880    600.601  0.001587 5507
  57.070    628.070    629.658    600.557  0.001592 5508
  57.080    630.390    629.428    600.514  0.001586 5509
  57.090    625.440    629.279    600.471  0.001599 5510
  57.100    626.660    629.163    600.429  0.001596 5511
  57.110    628.710    629.066    600.387  0.001591 5512
  57.120    632.420    629.013    600.345  0.001581 5513
  57.130    632.270    628.967    600.303  0.001582 5514
  57.140    633.540    628.961    600.262  0.001578 5515
  57.150    628.510    628.952    600.221  0.001591 5516
  57.160    629.980    628.988    600.180  0.001587 5517
  57.170    631.280    629.016    600.140  0.001584 5518
  57.180    630.650    629.034    600.100  0.001586 5519
  57.190    626.680    629.082    600.060  0.001596 5520
  57.200    631.710    629.119    600.020  0.001583 5521
  57.210    625.470    629.168    599.981  0.001599 5522
  57.220    627.280    629.204    599.942  0.001594 5523
  57.230    627.610    629.246    599.903  0.001593 5524
  57.240    627.690    629.312    599.865  0.001593 5525
  57.250    626.920    629.372    599.827  0.001595 5526
  57.260    628.080    629.404    599.789  0.001592 5527
  57.270    623.910    629.412    599.751  0.001603 5528
  57.280    630.280    629.423    599.714  0.001587 5529
  57.290    630.800    629.421    599.677  0.001585 5530
  57.300    631.510    629.418    599.640  0.001584 5531
  57.310    630.120    629.440    599.604  0.001587 5532
  57.320    630.390    629.452    599.567  0.001586 5533
  57.330    623.190    629.478    599.531  0.001605 5534
  57.340    627.920    629.480    599.496  0.001593 5535
  57.350    629.570    629.479    599.460  0.001588 5536
  57.360    632.960    629.527    599.425  0.001580 5537
  57.370    626.700    629.588    599.390  0.001596 5538
  57.380    631.400    629.643    599.355  0.001584 5539
  57.390    627.500    629.725    599.321  0.001594 5540
  57.400    632.470    629.835    599.287  0.001581 5541
  57.410    627.690    629.947    599.253  0.001593 5542
  57.420    633.120    630.041    599.219  0.001579 5543
  57.430    629.090    630.204    599.186  0.001590 5544
  57.440    633.230    630.387    599.152  0.001579 5545
  57.450    626.900    630.559    599.119  0.001595 5546
  57.460    630.360    630.762    599.087  0.001586 5547
  57.470    630.350    630.990    599.054  0.001586 5548
  57.480    633.740    631.243    599.022  0.001578 5549
  57.490    630.830    631.483    598.990  0.001585 5550
  57.500    635.520    631.740    598.958  0.001574 5551
  57.510    631.600    631.989    598.926  0.001583 5552
  57.520    633.680    632.245    598.895  0.001578 5553
  57.530    633.890    632.486    598.864  0.001578 5554
  57.540    636.630    632.718    598.833  0.001571 5555
  57.550    631.120    632.928    598.802  0.001584 5556
  57.560    633.830    633.122    598.771  0.001578 5557
  57.570    632.660    633.313    598.741  0.001581 5558
  57.580    633.320    633.484    598.711  0.001579 5559
  57.590    631.620    633.609    598.681  0.001583 5560
  57.600    635.520    633.713    598.651  0.001574 5561
  57.610    630.460    633.831    598.622  0.001586 5562
  57.620    634.130    633.906    598.592  0.001577 5563
  57.630    632.310    633.970    598.563  0.001582 5564
  57.640    635.710    634.018    598.534  0.001573 5565
  57.650    634.300    634.029    598.505  0.001577 5566
  57.660    636.640    634.022    598.477  0.001571 5567
  57.670    636.680    634.024    598.448  0.001571 5568
  57.680    636.190    634.019    598.420  0.001572 5569
  57.690    632.840    634.038    598.392  0.001580 5570
  57.700    635.730    634.029    598.364  0.001573 5571
  57.710    632.960    634.048    598.336  0.001580 5572
  57.720    632.900    634.059    598.308  0.001580 5573
  57.730    631.840    634.122    598.281  0.001583 5574
  57.740    632.380    634.152    598.254  0.001581 5575
  57.750    627.960    634.217    598.227  0.001592 5576
  57.760    634.090    634.288    598.200  0.001577 5577
  57.770    633.530    634.438    598.173  0.001578 5578
  57.780    635.910    634.576    598.146  0.001573 5579
  57.790    633.620    634.722    598.119  0.001578 5580
  57.800    639.280    634.888    598.093  0.001564 5581
  57.810    632.750    635.087    598.067  0.001580 5582
  57.820    636.710    635.302    598.041  0.001571 5583
  57.830    636.080    635.498    598.015  0.001572 5584
  57.840    636.440    635.710    597.989  0.001571 5585
  57.850    634.960    635.895    597.963  0.001575 5586
  57.860    638.460    636.094    597.937  0.001566 5587
  57.870    632.090    636.283    597.912  0.001582 5588
  57.880    637.280    636.447    597.886  0.001569 5589
  57.890    632.620    636.581    597.861  0.001581 5590
  57.900    638.240    636.715    597.836  0.001567 5591
  57.910    637.280    636.755    597.810  0.001569 5592
  57.920    639.750    636.769    597.785  0.001563 5593
  57.930    631.100    636.715    597.760  0.001585 5594
  57.940    639.610    636.583    597.736  0.001563 5595
  57.950    634.810    636.423    597.711  0.001575 5596
  57.960    635.700    636.189    597.686  0.001573 5597
  57.970    632.900    635.933    597.661  0.001580 5598
  57.980    637.900    635.608    597.637  0.001568 5599
  57.990    633.570    635.249    597.612  0.001578 5600
  58.000    633.640    634.839    597.588  0.001578 5601
  58.010    639.400    634.470    597.564  0.001564 5602
  58.020    639.780    634.034    597.539  0.001563 5603
  58.030    635.660    633.637    597.515  0.001573 5604
  58.040    637.290    633.210    597.491  0.001569 5605
  58.050    630.360    632.789    597.467  0.001586 5606
  58.060    634.070    632.371    597.443  0.001577 5607
  58.070    630.410    631.988    597.419  0.001586 5608
  58.080    635.910    631.627    597.395  0.001573 5609
  58.090    629.830    631.273    597.371  0.001588 5610
  58.100    633.880    630.945    597.347  0.001578 5611
  58.110    627.690    630.682    597.323  0.001593 5612
  58.120    629.940    630.423    597.299  0.001587 5613
  58.130    631.070    630.179    597.275  0.001585 5614
  58.140    631.760    629.984    597.251  0.001583 5615
  58.150    627.820    629.813    597.227  0.001593 5616
  58.160    632.020    629.652    597.203  0.001582 5617
  58.170    628.190    629.486    597.180  0.001592 5618
  58.180    628.510    629.328    597.156  0.001591 5619
  58.190    631.470    629.191    597.132  0.001584 5620
  58.200    636.110    629.080    597.108  0.001572 5621
  58.210    632.220    628.997    597.084  0.001582 5622
  58.220    631.830    628.857    597.060  0.001583 5623
  58.230    629.340    628.727    597.036  0.001589 5624
  58.240    632.840    628.597    597.012  0.001580 5625
  58.250    630.880    628.460    596.988  0.001585 5626
  58.260    632.420    628.331    596.964  0.001581 5627
  58.270    627.710    628.219    596.940  0.001593 5628
  58.280    632.560    628.127    596.916  0.001581 5629
  58.290    628.620    628.062    596.892  0.001591 5630
  58.300    631.100    628.015    596.868  0.001585 5631
  58.310    629.220    627.957    596.844  0.001589 5632
  58.320    632.350    627.932    596.819  0.001581 5633
  58.330    630.810    627.935    596.795  0.001585 5634
  58.340    632.480    627.949    596.771  0.001581 5635
  58.350    625.850    627.980    596.746  0.001598 5636
  58.360    628.030    628.018    596.722  0.001592 5637
  58.370    625.260    628.098    596.697  0.001599 5638
  58.380    629.170    628.177    596.672  0.001589 5639
  58.390    626.850    628.249    596.648  0.001595 5640
  58.400    631.500    628.347    596.623  0.001584 5641
  58.410    626.160    628.425    596.598  0.001597 5642
  58.420    628.060    628.487    596.573  0.001592 5643
  58.430    628.250    628.551    596.548  0.001592 5644
  58.440    630.290    628.610    596.522  0.001587 5645
  58.450    628.890    628.672    596.497  0.001590 5646
  58.460    629.980    628.685    596.472  0.001587 5647
  58.470    626.680    628.709    596.446  0.001596 5648
  58.480    629.610    628.692    596.420  0.001588 5649
  58.490    629.160    628.633    596.395  0.001589 5650
  58.500    630.130    628.541    596.369  0.001587 5651
  58.510    627.590    628.445    596.343  0.001593 5652
  58.520    629.220    628.334    596.317  0.001589 5653
  58.530    627.200    628.195    596.290  0.001594 5654
  58.540    629.100    628.025    596.264  0.001590 5655
  58.550    623.480    627.860    596.238  0.001604 5656
  58.560    631.110    627.681    596.211  0.001585 5657
  58.570    624.070    627.502    596.184  0.001602 5658
  58.580    626.320    627.326    596.157  0.001597 5659
  58.590    620.420    627.118    596.130  0.001612 5660
  58.600    621.290    626.906    596.103  0.001610 5661
  58.610    623.640    626.725    596.075  0.001603 5662
  58.620    628.740    626.513    596.048  0.001590 5663
  58.630    624.160    626.329    596.020  0.001602 5664
  58.640    625.780    626.165    595.992  0.001598 5665
  58.650    622.180    625.965    595.964  0.001607 5666
  58.660    625.480    625.761    595.936  0.001599 5667
  58.670    622.330    625.590    595.908  0.001607 5668
  58.680    628.180    625.409    595.879  0.001592 5669
  58.690    625.390    625.236    595.851  0.001599 5670
  58.700    624.520    625.051    595.822  0.001601 5671
  58.710    621.010    624.897    595.793  0.001610 5672
  58.720    624.560    624.772    595.764  0.001601 5673
  58.730    623.090    624.658    595.734  0.001605 5674
  58.740    626.380    624.536    595.705  0.001596 5675
  58.750    623.580    624.424    595.675  0.001604 5676
  58.760    629.460    624.302    595.645  0.001589 5677
  58.770    623.700    624.206    595.615  0.001603 5678
  58.780    627.120    624.116    595.585  0.001595 5679
  58.790    626.210    624.054    595.554  0.001597 5680
  58.800    628.640    623.946    595.524  0.001591 5681
  58.810    624.060    623.901    595.493  0.001602 5682
  58.820    625.570    623.829    595.462  0.001599 5683
  58.830    620.770    623.759    595.431  0.001611 5684
  58.840    624.900    623.680    595.399  0.001600 5685
  58.850    623.070    623.643    595.367  0.001605 5686
  58.860    628.930    623.588    595.336  0.001590 5687
  58.870    626.790    623.535    595.304  0.001595 5688
  58.880    630.450    623.455    595.271  0.001586 5689
  58.890    622.180    623.399    595.239  0.001607 5690
  58.900    626.310    623.354    595.206  0.001597 5691
  58.910    625.150    623.305    595.173  0.001600 5692
  58.920    629.590    623.274    595.140  0.001588 5693
  58.930    625.210    623.259    595.107  0.001599 5694
  58.940    630.450    623.245    595.074  0.001586 5695
  58.950    623.930    623.206    595.040  0.001603 5696
  58.960    627.780    623.182    595.006  0.001593 5697
  58.970    626.300    623.149    594.972  0.001597 5698
  58.980    630.750    623.139    594.938  0.001585 5699
  58.990    625.860    623.122    594.903  0.001598 5700
  59.000    628.890    623.083    594.868  0.001590 5701
  59.010    622.700    623.059    594.833  0.001606 5702
  59.020    627.430    623.059    594.798  0.001594 5703
  59.030    626.040    623.096    594.763  0.001597 5704
  59.040    625.540    623.111    594.727  0.001599 5705
  59.050    626.360    623.142    594.692  0.001597 5706
  59.060    629.440    623.172    594.656  0.001589 5707
  59.070    625.530    623.191    594.620  0.001599 5708
  59.080    628.620    623.239    594.583  0.001591 5709
  59.090    628.460    623.281    594.547  0.001591 5710
  59.100    630.010    623.365    594.510  0.001587 5711
  59.110    626.180    623.446    594.473  0.001597 5712
  59.120    627.030    623.514    594.436  0.001595 5713
  59.130    622.320    623.638    594.398  0.001607 5714
  59.140    625.980    623.735    594.361  0.001597 5715
  59.150    624.120    623.842    594.323  0.001602 5716
  59.160    628.130    623.906    594.285  0.001592 5717
  59.170    627.310    624.005    594.247  0.001594 5718
  59.180    629.320    624.103    594.208  0.001589 5719
  59.190    625.120    624.159    594.170  0.001600 5720
  59.200    628.830    624.205    594.131  0.001590 5721
  59.210    630.520    624.231    594.092  0.001586 5722
  59.220    629.440    624.263    594.053  0.001589 5723
  59.230    627.220    624.237    594.013  0.001594 5724
  59.240    630.710    624.220    593.974  0.001586 5725
  59.250    623.480    624.162    593.934  0.001604 5726
  59.260    625.120    624.100    593.894  0.001600 5727
  59.270    627.300    624.047    593.854  0.001594 5728
  59.280    626.030    623.947    593.814  0.001597 5729
  59.290    624.620    623.847    593.773  0.001601 5730
  59.300    630.340    623.723    593.733  0.001586 5731
  59.310    623.090    623.592    593.692  0.001605 5732
  59.320    626.410    623.447    593.651  0.001596 5733
  59.330    626.760    623.280    593.610  0.001596 5734
  59.340    628.220    623.083    593.568  0.001592 5735
  59.350    624.260    622.896    593.527  0.001602 5736
  59.360    626.280    622.712    593.485  0.001597 5737
  59.370    619.270    622.513    593.443  0.001615 5738
  59.380    622.400    622.289    593.401  0.001607 5739
  59.390    621.790    622.101    593.359  0.001608 5740
  59.400    623.820    621.932    593.317  0.001603 5741
  59.410    618.580    621.726    593.274  0.001617 5742
  59.420    626.270    621.530    593.232  0.001597 5743
  59.430    621.420    621.335    593.189  0.001609 5744
  59.440    624.500    621.139    593.146  0.001601 5745
  59.450    619.540    620.936    593.103  0.001614 5746
  59.460    622.600    620.784    593.060  0.001606 5747
  59.470    622.240    620.646    593.017  0.001607 5748
  59.480    623.210    620.507    592.973  0.001605 5749
  59.490    618.110    620.395    592.930  0.001618 5750
  59.500    622.990    620.280    592.886  0.001605 5751
  59.510    622.010    620.200    592.842  0.001608 5752
  59.520    621.610    620.136    592.798  0.001609 5753
  59.530    620.750    620.076    592.754  0.001611 5754
  59.540    622.100    620.019    592.710  0.001607 5755
  59.550    616.290    619.992    592.666  0.001623 5756
  59.560    620.710    619.994    592.621  0.001611 5757
  59.570    619.870    619.982    592.577  0.001613 5758
  59.580    623.500    619.975    592.532  0.001604 5759
  59.590    620.810    619.941    592.487  0.001611 5760
  59.600    619.270    619.928    592.442  0.001615 5761
  59.610    615.250    619.914    592.398  0.001625 5762
  59.620    621.960    619.928    592.353  0.001608 5763
  59.630    620.160    619.909    592.308  0.001612 5764
  59.640    624.290    619.894    592.262  0.001602 5765
  59.650    622.410    619.864    592.217  0.001607 5766
  59.660    625.690    619.849    592.172  0.001598 5767
  59.670    615.900    619.840    592.126  0.001624 5768
  59.680    622.090    619.789    592.081  0.001607 5769
  59.690    620.340    619.768    592.035  0.001612 5770
  59.700    621.940    619.750    591.990  0.001608 5771
  59.710    620.930    619.683    591.944  0.001610 5772
  59.720    625.800    619.625    591.898  0.001598 5773
  59.730    618.970    619.587    591.853  0.001616 5774
  59.740    621.980    619.551    591.807  0.001608 5775
  59.750    620.230    619.510    591.761  0.001612 5776
  59.760    624.090    619.474    591.715  0.001602 5777
  59.770    622.060    619.425    591.669  0.001608 5778
  59.780    624.620    619.386    591.623  0.001601 5779
  59.790    621.420    619.370    591.577  0.001609 5780
  59.800    628.220    619.390    591.531  0.001592 5781
  59.810    622.470    619.410    591.485  0.001607 5782
  59.820    626.210    619.449    591.439  0.001597 5783
  59.830    623.440    619.474    591.393  0.001604 5784
  59.840    623.890    619.504    591.347  0.001603 5785
  59.850    617.340    619.529    591.301  0.001620 5786
  59.860    619.410    619.587    591.254  0.001614 5787
  59.870    620.540    619.646    591.208  0.001611 5788
  59.880    622.880    619.695    591.162  0.001605 5789
  59.890    621.810    619.731    591.116  0.001608 5790
  59.900    624.410    619.796    591.070  0.001602 5791
  59.910    621.880    619.816    591.024  0.001608 5792
  59.920    622.960    619.821    590.978  0.001605 5793
  59.930    619.030    619.815    590.931  0.001615 5794
  59.940    625.530    619.818    590.885  0.001599 5795
  59.950    625.070    619.800    590.839  0.001600 5796
  59.960    627.470    619.753    590.793  0.001594 5797
  59.970    622.910    619.700    590.747  0.001605 5798
  59.980    625.410    619.647    590.701  0.001599 5799
  59.990    624.230    619.564    590.655  0.001602 5800
  60.000    622.760    619.513    590.609  0.001606 5801
  60.010    622.210    619.450    590.563  0.001607 5802
  60.020    624.700    619.403    590.518  0.001601 5803
  60.030    620.530    619.347    590.472  0.001612 5804
  60.040    623.270    619.294    590.426  0.001604 5805
  60.050    622.480    619.226    590.380  0.001606 5806
  60.060    626.080    619.169    590.335  0.001597 5807
  60.070    622.640    619.110    590.289  0.001606 5808
  60.080    626.690    619.067    590.244  0.001596 5809
  60.090    622.880    619.013    590.198  0.001605 5810
  60.100    623.990    618.968    590.153  0.001603 5811
  60.110    621.100    618.953    590.108  0.001610 5812
  60.120    622.260    618.929    590.062  0.001607 5813
  60.130    621.350    618.890    590.017  0.001609 5814
  60.140    626.820    618.846    589.972  0.001595 5815
  60.150    618.500    618.791    589.927  0.001617 5816
  60.160    624.210    618.724    589.882  0.001602 5817
  60.170    623.400    618.640    589.837  0.001604 5818
  60.180    622.210    618.542    589.793  0.001607 5819
  60.190    621.550    618.399    589.748  0.001609 5820
  60.200    623.390    618.262    589.703  0.001604 5821
  60.210    619.860    618.086    589.659  0.001613 5822
  60.220    623.170    617.882    589.614  0.001605 5823
  60.230    620.700    617.652    589.570  0.001611 5824
  60.240    621.670    617.418    589.526  0.001609 5825
  60.250    619.820    617.201    589.482  0.001613 5826
  60.260    619.540    616.954    589.438  0.001614 5827
  60.270    615.190    616.711    589.394  0.001626 5828
  60.280    615.970    616.379    589.350  0.001623 5829
  60.290    619.510    616.052    589.307  0.001614 5830
  60.300    620.910    615.741    589.263  0.001611 5831
  60.310    618.130    615.417    589.220  0.001618 5832
  60.320    621.500    615.064    589.177  0.001609 5833
  60.330    611.830    614.745    589.133  0.001634 5834
  60.340    614.330    614.442    589.090  0.001628 5835
  60.350    615.090    614.130    589.047  0.001626 5836
  60.360    616.280    613.800    589.005  0.001623 5837
  60.370    611.360    613.522    588.962  0.001636 5838
  60.380    613.060    613.248    588.919  0.001631 5839
  60.390    609.900    612.960    588.877  0.001640 5840
  60.400    610.160    612.716    588.835  0.001639 5841
  60.410    610.180    612.479    588.793  0.001639 5842
  60.420    612.760    612.258    588.751  0.001632 5843
  60.430    613.420    612.034    588.709  0.001630 5844
  60.440    616.060    611.864    588.667  0.001623 5845
  60.450    611.780    611.700    588.625  0.001635 5846
  60.460    614.310    611.570    588.584  0.001628 5847
  60.470    613.180    611.419    588.543  0.001631 5848
  60.480    613.420    611.290    588.502  0.001630 5849
  60.490    612.470    611.180    588.461  0.001633 5850
  60.500    614.270    611.079    588.420  0.001628 5851
  60.510    606.930    611.023    588.379  0.001648 5852
  60.520    612.280    610.971    588.338  0.001633 5853
  60.530    616.320    610.934    588.298  0.001623 5854
  60.540    615.480    610.892    588.258  0.001625 5855
  60.550    613.190    610.906    588.218  0.001631 5856
  60.560    615.340    610.870    588.178  0.001625 5857
  60.570    609.340    610.879    588.138  0.001641 5858
  60.580    615.270    610.933    588.098  0.001625 5859
  60.590    613.780    610.982    588.059  0.001629 5860
  60.600    614.490    611.030    588.019  0.001627 5861
  60.610    610.800    611.110    587.980  0.001637 5862
  60.620    613.090    611.196    587.941  0.001631 5863
  60.630    611.880    611.292    587.902  0.001634 5864
  60.640    619.390    611.436    587.863  0.001614 5865
  60.650    615.670    611.568    587.825  0.001624 5866
  60.660    616.610    611.703    587.786  0.001622 5867
  60.670    613.360    611.849    587.748  0.001630 5868
  60.680    618.070    611.955    587.710  0.001618 5869
  60.690    613.370    612.086    587.672  0.001630 5870
  60.700    615.230    612.181    587.634  0.001625 5871
  60.710    614.190    612.266    587.597  0.001628 5872
  60.720    616.740    612.366    587.559  0.001621 5873
  60.730    611.860    612.441    587.522  0.001634 5874
  60.740    618.390    612.491    587.485  0.001617 5875
  60.750    609.670    612.551    587.448  0.001640 5876
  60.760    615.320    612.580    587.411  0.001625 5877
  60.770    611.590    612.559    587.374  0.001635 5878
  60.780    616.930    612.581    587.337  0.001621 5879
  60.790    611.910    612.557    587.301  0.001634 5880
  60.800    615.460    612.506    587.265  0.001625 5881
  60.810    610.530    612.436    587.229  0.001638 5882
  60.820    612.340    612.352    587.193  0.001633 5883
  60.830    613.440    612.284    587.157  0.001630 5884
  60.840    613.390    612.166    587.122  0.001630 5885
  60.850    611.710    612.062    587.086  0.001635 5886
  60.860    617.490    611.974    587.051  0.001619 5887
  60.870    610.910    611.829    587.016  0.001637 5888
  60.880    612.300    611.695    586.981  0.001633 5889
  60.890    610.390    611.540    586.946  0.001638 5890
  60.900    610.430    611.431    586.911  0.001638 5891
  60.910    610.730    611.352    586.877  0.001637 5892
  60.920    611.200    611.263    586.842  0.001636 5893
  60.930    610.230    611.206    586.808  0.001639 5894
  60.940    611.510    611.143    586.774  0.001635 5895
  60.950    613.110    611.056    586.740  0.001631 5896
  60.960    614.990    611.030    586.706  0.001626 5897
  60.970    612.630    611.006    586.673  0.001632 5898
  60.980    612.920    611.005    586.639  0.001632 5899
  60.990    609.560    611.006    586.606  0.001641 5900
  61.000    611.490    610.976    586.572  0.001635 5901
  61.010    610.810    611.013    586.539  0.001637 5902
  61.020    616.630    611.027    586.506  0.001622 5903
  61.030    609.470    611.062    586.474  0.001641 5904
  61.040    614.740    611.080    586.441  0.001627 5905
  61.050    610.560    611.096    586.408  0.001638 5906
  61.060    614.490    611.128    586.376  0.001627 5907
  61.070    613.310    611.166    586.344  0.001630 5908
  61.080    613.080    611.209    586.312  0.001631 5909
  61.090    612.480    611.206    586.280  0.001633 5910
  61.100    612.780    611.209    586.248  0.001632 5911
  61.110    609.500    611.206    586.216  0.001641 5912
  61.120    612.940    611.227    586.184  0.001631 5913
  61.130    611.890    611.201    586.153  0.001634 5914
  61.140    612.300    611.185    586.122  0.001633 5915
  61.150    610.860    611.163    586.090  0.001637 5916
  61.160    612.400    611.126    586.059  0.001633 5917
  61.170    612.100    611.156    586.028  0.001634 5918
  61.180    613.700    611.176    585.997  0.001629 5919
  61.190    610.810    611.245    585.967  0.001637 5920
  61.200    612.980    611.289    585.936  0.001631 5921
  61.210    613.790    611.324    585.905  0.001629 5922
  61.220    617.360    611.382    585.875  0.001620 5923
  61.230    612.330    611.471    585.845  0.001633 5924
  61.240    616.290    611.572    585.815  0.001623 5925
  61.250    613.360    611.683    585.784  0.001630 5926
  61.260    614.880    611.791    585.754  0.001626 5927
  61.270    612.900    611.924    585.725  0.001632 5928
  61.280    615.410    612.047    585.695  0.001625 5929
  61.290    611.080    612.177    585.665  0.001636 5930
  61.300    615.380    612.322    585.636  0.001625 5931
  61.310    612.130    612.502    585.606  0.001634 5932
  61.320    614.180    612.637    585.577  0.001628 5933
  61.330    614.190    612.784    585.547  0.001628 5934
  61.340    619.420    612.960    585.518  0.001614 5935
  61.350    615.040    613.093    585.489  0.001626 5936
  61.360    617.800    613.252    585.460  0.001619 5937
  61.370    615.250    613.413    585.431  0.001625 5938
  61.380    615.010    613.543    585.402  0.001626 5939
  61.390    612.410    613.661    585.373  0.001633 5940
  61.400    611.850    613.777    585.345  0.001634 5941
  61.410    610.620    613.859    585.316  0.001638 5942
  61.420    614.210    613.956    585.287  0.001628 5943
  61.430    617.140    614.017    585.259  0.001620 5944
  61.440    617.290    614.084    585.231  0.001620 5945
  61.450    615.600    614.108    585.202  0.001624 5946
  61.460    615.890    614.084    585.174  0.001624 5947
  61.470    613.120    614.101    585.146  0.001631 5948
  61.480    616.120    614.130    585.118  0.001623 5949
  61.490    612.240    614.097    585.090  0.001633 5950
  61.500    617.140    614.075    585.062  0.001620 5951
  61.510    613.560    614.056    585.034  0.001630 5952
  61.520    616.980    614.002    585.006  0.001621 5953
  61.530    612.550    613.944    584.978  0.001633 5954
  61.540    616.700    613.892    584.950  0.001622 5955
  61.550    614.530    613.854    584.922  0.001627 5956
  61.560    616.500    613.792    584.895  0.001622 5957
  61.570    614.690    613.760    584.867  0.001627 5958
  61.580    618.630    613.719    584.840  0.001616 5959
  61.590    611.030    613.671    584.812  0.001637 5960
  61.600    618.740    613.633    584.785  0.001616 5961
  61.610    614.440    613.597    584.757  0.001627 5962
  61.620    615.190    613.580    584.730  0.001626 5963
  61.630    614.050    613.565    584.702  0.001629 5964
  61.640    620.070    613.520    584.675  0.001613 5965
  61.650    617.190    613.504    584.648  0.001620 5966
  61.660    618.100    613.484    584.620  0.001618 5967
  61.670    619.120    613.422    584.593  0.001615 5968
  61.680    620.830    613.372    584.566  0.001611 5969
  61.690    617.410    613.326    584.539  0.001620 5970
  61.700    619.620    613.284    584.512  0.001614 5971
  61.710    614.550    613.195    584.484  0.001627 5972
  61.720    617.980    613.146    584.457  0.001618 5973
  61.730    618.900    613.041    584.430  0.001616 5974
  61.740    619.910    612.937    584.403  0.001613 5975
  61.750    616.210    612.864    584.376  0.001623 5976
  61.760    617.010    612.753    584.349  0.001621 5977
  61.770    617.530    612.626    584.322  0.001619 5978
  61.780    616.350    612.499    584.295  0.001622 5979
  61.790    615.540    612.386    584.268  0.001625 5980
  61.800    617.270    612.241    584.241  0.001620 5981
  61.810    617.560    612.083    584.214  0.001619 5982
  61.820    615.270    611.973    584.187  0.001625 5983
  61.830    611.730    611.832    584.160  0.001635 5984
  61.840    616.070    611.699    584.133  0.001623 5985
  61.850    612.910    611.564    584.106  0.001632 5986
  61.860    616.260    611.417    584.079  0.001623 5987
  61.870    614.150    611.277    584.053  0.001628 5988
  61.880    614.870    611.115    584.026  0.001626 5989
  61.890    610.620    611.003    583.999  0.001638 5990
  61.900    613.080    610.877    583.972  0.001631 5991
  61.910    614.640    610.738    583.945  0.001627 5992
  61.920    616.240    610.616    583.918  0.001623 5993
  61.930    613.860    610.463    583.891  0.001629 5994
  61.940    616.080    610.320    583.864  0.001623 5995
  61.950    608.710    610.184    583.837  0.001643 5996
  61.960    613.310    610.010    583.810  0.001630 5997
  61.970    614.030    609.828    583.783  0.001629 5998
  61.980    612.460    609.669    583.756  0.001633 5999
  61.990    611.460    609.507    583.729  0.001635 6000
  62.000    612.350    609.392    583.702  0.001633 6001
  62.010    606.850    609.277    583.675  0.001648 6002
  62.020    610.630    609.153    583.648  0.001638 6003
  62.030    610.680    609.055    583.621  0.001638 6004
  62.040    614.710    608.956    583.593  0.001627 6005
  62.050    609.460    608.851    583.566  0.001641 6006
  62.060    613.490    608.779    583.539  0.001630 6007
  62.070    608.800    608.739    583.512  0.001643 6008
  62.080    612.520    608.724    583.485  0.001633 6009
  62.090    611.530    608.693    583.458  0.001635 6010
  62.100    610.610    608.694    583.430  0.001638 6011
  62.110    609.580    608.705    583.403  0.001640 6012
  62.120    610.290    608.726    583.376  0.001639 6013
  62.130    607.220    608.757    583.349  0.001647 6014
  62.140    610.470    608.807    583.321  0.001638 6015
  62.150    608.260    608.828    583.294  0.001644 6016
  62.160    615.260    608.889    583.266  0.001625 6017
  62.170    613.740    608.935    583.239  0.001629 6018
  62.180    613.740    608.999    583.212  0.001629 6019
  62.190    607.420    609.051    583.184  0.001646 6020
  62.200    613.770    609.121    583.157  0.001629 6021
  62.210    613.100    609.177    583.129  0.001631 6022
  62.220    613.950    609.257    583.102  0.001629 6023
  62.230    616.190    609.360    583.074  0.001623 6024
  62.240    614.180    609.463    583.046  0.001628 6025
  62.250    610.640    609.560    583.019  0.001638 6026
  62.260    614.620    609.645    582.991  0.001627 6027
  62.270    611.770    609.725    582.963  0.001635 6028
  62.280    614.260    609.808    582.935  0.001628 6029
  62.290    613.020    609.882    582.908  0.001631 6030
  62.300    615.580    609.906    582.880  0.001624 6031
  62.310    609.940    609.976    582.852  0.001640 6032
  62.320    615.980    610.018    582.824  0.001623 6033
  62.330    613.030    610.073    582.796  0.001631 6034
  62.340    618.680    610.089    582.768  0.001616 6035
  62.350    612.960    610.081    582.740  0.001631 6036
  62.360    617.270    610.061    582.712  0.001620 6037
  62.370    611.780    610.028    582.684  0.001635 6038
  62.380    615.220    609.981    582.656  0.001625 6039
  62.390    616.480    609.923    582.627  0.001622 6040
  62.400    612.810    609.881    582.599  0.001632 6041
  62.410    611.290    609.772    582.571  0.001636 6042
  62.420    616.230    609.681    582.542  0.001623 6043
  62.430    609.000    609.583    582.514  0.001642 6044
  62.440    614.910    609.501    582.486  0.001626 6045
  62.450    613.220    609.389    582.457  0.001631 6046
  62.460    615.650    609.282    582.429  0.001624 6047
  62.470    612.130    609.201    582.400  0.001634 6048
  62.480    614.060    609.077    582.372  0.001629 6049
  62.490    609.490    608.950    582.343  0.001641 6050
  62.500    613.210    608.855    582.314  0.001631 6051
  62.510    612.330    608.722    582.286  0.001633 6052
  62.520    614.780    608.578    582.257  0.001627 6053
  62.530    614.950    608.475    582.228  0.001626 6054
  62.540    615.730    608.327    582.199  0.001624 6055
  62.550    610.600    608.212    582.170  0.001638 6056
  62.560    614.430    608.101    582.141  0.001628 6057
  62.570    611.630    608.004    582.112  0.001635 6058
  62.580    616.250    607.913    582.083  0.001623 6059
  62.590    609.610    607.828    582.054  0.001640 6060
  62.600    610.970    607.747    582.025  0.001637 6061
  62.610    606.830    607.711    581.996  0.001648 6062
  62.620    610.210    607.637    581.966  0.001639 6063
  62.630    607.530    607.576    581.937  0.001646 6064
  62.640    611.190    607.471    581.908  0.001636 6065
  62.650    609.110    607.393    581.878  0.001642 6066
  62.660    611.930    607.324    581.849  0.001634 6067
  62.670    606.430    607.254    581.819  0.001649 6068
  62.680    609.770    607.156    581.790  0.001640 6069
  62.690    608.680    607.091    581.760  0.001643 6070
  62.700    611.020    607.020    581.730  0.001637 6071
  62.710    606.870    606.964    581.701  0.001648 6072
  62.720    608.750    606.902    581.671  0.001643 6073
  62.730    605.770    606.827    581.641  0.001651 6074
  62.740    608.690    606.707    581.611  0.001643 6075
  62.750    611.590    606.586    581.581  0.001635 6076
  62.760    611.100    606.503    581.551  0.001636 6077
  62.770    609.870    606.383    581.521  0.001640 6078
  62.780    612.540    606.269    581.491  0.001633 6079
  62.790    608.180    606.143    581.460  0.001644 6080
  62.800    608.520    606.026    581.430  0.001643 6081
  62.810    609.230    605.909    581.400  0.001641 6082
  62.820    609.220    605.799    581.369  0.001641 6083
  62.830    610.750    605.701    581.339  0.001637 6084
  62.840    611.190    605.607    581.308  0.001636 6085
  62.850    607.780    605.525    581.278  0.001645 6086
  62.860    610.860    605.398    581.247  0.001637 6087
  62.870    608.750    605.284    581.216  0.001643 6088
  62.880    609.710    605.151    581.185  0.001640 6089
  62.890    606.770    605.049    581.154  0.001648 6090
  62.900    611.990    604.902    581.123  0.001634 6091
  62.910    605.570    604.816    581.092  0.001651 6092
  62.920    609.070    604.733    581.061  0.001642 6093
  62.930    609.320    604.654    581.030  0.001641 6094
  62.940    607.870    604.579    580.998  0.001645 6095
  62.950    605.540    604.483    580.967  0.001651 6096
  62.960    610.970    604.413    580.936  0.001637 6097
  62.970    606.540    604.336    580.904  0.001649 6098
  62.980    608.630    604.262    580.872  0.001643 6099
  62.990    607.040    604.192    580.841  0.001647 6100
  63.000    610.370    604.123    580.809  0.001638 6101
  63.010    606.940    604.047    580.777  0.001648 6102
  63.020    612.960    603.976    580.745  0.001631 6103
  63.030    604.920    603.911    580.713  0.001653 6104
  63.040    609.360    603.807    580.681  0.001641 6105
  63.050    605.070    603.739    580.648  0.001653 6106
  63.060    607.960    603.656    580.616  0.001645 6107
  63.070    605.980    603.540    580.584  0.001650 6108
  63.080    605.870    603.426    580.551  0.001651 6109
  63.090    602.400    603.325    580.518  0.001660 6110
  63.100    604.780    603.214    580.486  0.001653 6111
  63.110    605.180    603.080    580.453  0.001652 6112
  63.120    606.220    602.980    580.420  0.001650 6113
  63.130    604.070    602.848    580.387  0.001655 6114
  63.140    604.500    602.727    580.354  0.001654 6115
  63.150    598.900    602.576    580.320  0.001670 6116
  63.160    603.660    602.444    580.287  0.001657 6117
  63.170    600.590    602.327    580.254  0.001665 6118
  63.180    602.570    602.170    580.220  0.001660 6119
  63.190    602.710    602.011    580.186  0.001659 6120
  63.200    604.770    601.843    580.152  0.001654 6121
  63.210    603.640    601.693    580.118  0.001657 6122
  63.220    602.640    601.545    580.084  0.001659 6123
  63.230    600.420    601.411    580.050  0.001666 6124
  63.240    599.620    601.276    580.016  0.001668 6125
  63.250    597.420    601.128    579.981  0.001674 6126
  63.260    600.480    600.999    579.947  0.001665 6127
  63.270    596.780    600.915    579.912  0.001676 6128
  63.280    602.400    600.804    579.877  0.001660 6129
  63.290    599.090    600.688    579.842  0.001669 6130
  63.300    602.790    600.597    579.807  0.001659 6131
  63.310    601.090    600.475    579.772  0.001664 6132
  63.320    603.700    600.410    579.737  0.001656 6133
  63.330    601.110    600.313    579.701  0.001664 6134
  63.340    603.380    600.232    579.665  0.001657 6135
  63.350    598.410    600.151    579.630  0.001671 6136
  63.360    602.090    600.110    579.594  0.001661 6137
  63.370    599.340    600.074    579.558  0.001669 6138
  63.380    602.570    600.041    579.521  0.001660 6139
  63.390    595.800    600.010    579.485  0.001678 6140
  63.400    600.890    599.964    579.448  0.001664 6141
  63.410    600.600    599.902    579.412  0.001665 6142
  63.420    601.400    599.871    579.375  0.001663 6143
  63.430    599.010    599.840    579.338  0.001669 6144
  63.440    600.840    599.780    579.301  0.001664 6145
  63.450    595.900    599.745    579.263  0.001678 6146
  63.460    599.900    599.688    579.226  0.001667 6147
  63.470    598.090    599.664    579.188  0.001672 6148
  63.480    601.840    599.624    579.150  0.001662 6149
  63.490    597.010    599.576    579.112  0.001675 6150
  63.500    600.560    599.508    579.074  0.001665 6151
  63.510    591.130    599.423    579.036  0.001692 6152
  63.520    601.660    599.319    578.997  0.001662 6153
  63.530    599.420    599.236    578.959  0.001668 6154
  63.540    599.860    599.132    578.920  0.001667 6155
  63.550    599.310    599.000    578.881  0.001669 6156
  63.560    599.050    598.887    578.842  0.001669 6157
  63.570    595.270    598.765    578.802  0.001680 6158
  63.580    596.140    598.627    578.763  0.001677 6159
  63.590    593.240    598.441    578.723  0.001686 6160
  63.600    600.740    598.296    578.683  0.001665 6161
  63.610    596.270    598.144    578.643  0.001677 6162
  63.620    599.340    597.952    578.602  0.001669 6163
  63.630    595.760    597.768    578.562  0.001679 6164
  63.640    597.830    597.586    578.521  0.001673 6165
  63.650    597.400    597.371    578.480  0.001674 6166
  63.660    594.850    597.200    578.439  0.001681 6167
  63.670    596.100    597.027    578.398  0.001678 6168
  63.680    597.420    596.852    578.356  0.001674 6169
  63.690    593.650    596.646    578.315  0.001684 6170
  63.700    592.940    596.465    578.273  0.001687 6171
  63.710    592.600    596.268    578.231  0.001687 6172
  63.720    596.430    596.066    578.188  0.001677 6173
  63.730    597.020    595.899    578.146  0.001675 6174
  63.740    595.440    595.771    578.103  0.001679 6175
  63.750    588.250    595.595    578.060  0.001700 6176
  63.760    591.850    595.457    578.017  0.001690 6177
  63.770    591.450    595.302    577.974  0.001691 6178
  63.780    595.540    595.208    577.930  0.001679 6179
  63.790    591.230    595.113    577.887  0.001691 6180
  63.800    594.520    595.005    577.843  0.001682 6181
  63.810    593.250    594.910    577.799  0.001686 6182
  63.820    595.170    594.829    577.754  0.001680 6183
  63.830    594.820    594.763    577.710  0.001681 6184
  63.840    600.450    594.720    577.665  0.001665 6185
  63.850    598.570    594.692    577.620  0.001671 6186
  63.860    599.360    594.659    577.575  0.001668 6187
  63.870    596.280    594.660    577.529  0.001677 6188
  63.880    598.300    594.698    577.484  0.001671 6189
  63.890    594.060    594.731    577.438  0.001683 6190
  63.900    599.460    594.789    577.392  0.001668 6191
  63.910    595.800    594.869    577.345  0.001678 6192
  63.920    599.780    594.934    577.299  0.001667 6193
  63.930    596.110    595.030    577.252  0.001678 6194
  63.940    600.810    595.118    577.205  0.001664 6195
  63.950    596.100    595.229    577.158  0.001678 6196
  63.960    601.200    595.331    577.111  0.001663 6197
  63.970    596.370    595.454    577.063  0.001677 6198
  63.980    600.000    595.615    577.015  0.001667 6199
  63.990    596.340    595.734    576.967  0.001677 6200
  64.000    600.970    595.885    576.919  0.001664 6201
  64.010    599.040    596.042    576.870  0.001669 6202
  64.020    599.130    596.178    576.822  0.001669 6203
  64.030    597.160    596.327    576.773  0.001675 6204
  64.040    600.170    596.481    576.724  0.001666 6205
  64.050    596.160    596.638    576.674  0.001677 6206
  64.060    602.320    596.760    576.625  0.001660 6207
  64.070    601.780    596.881    576.575  0.001662 6208
  64.080    602.810    597.045    576.525  0.001659 6209
  64.090    598.270    597.172    576.475  0.001671 6210
  64.100    603.740    597.258    576.424  0.001656 6211
  64.110    594.250    597.338    576.374  0.001683 6212
  64.120    599.640    597.450    576.323  0.001668 6213
  64.130    598.450    597.553    576.272  0.001671 6214
  64.140    598.560    597.629    576.220  0.001671 6215
  64.150    599.360    597.736    576.169  0.001668 6216
  64.160    603.490    597.835    576.117  0.001657 6217
  64.170    598.150    597.912    576.065  0.001672 6218
  64.180    595.360    597.993    576.013  0.001680 6219
  64.190    597.840    598.059    575.961  0.001673 6220
  64.200    599.960    598.116    575.908  0.001667 6221
  64.210    599.780    598.133    575.856  0.001667 6222
  64.220    599.590    598.188    575.803  0.001668 6223
  64.230    595.210    598.239    575.750  0.001680 6224
  64.240    598.740    598.247    575.696  0.001670 6225
  64.250    595.530    598.281    575.643  0.001679 6226
  64.260    598.680    598.293    575.589  0.001670 6227
  64.270    596.280    598.315    575.535  0.001677 6228
  64.280    600.840    598.337    575.481  0.001664 6229
  64.290    594.390    598.339    575.427  0.001682 6230
  64.300    598.800    598.367    575.372  0.001670 6231
  64.310    599.550    598.392    575.318  0.001668 6232
  64.320    600.150    598.426    575.263  0.001666 6233
  64.330    597.730    598.459    575.208  0.001673 6234
  64.340    600.430    598.461    575.153  0.001665 6235
  64.350    596.200    598.479    575.097  0.001677 6236
  64.360    599.840    598.469    575.042  0.001667 6237
  64.370    596.650    598.496    574.986  0.001676 6238
  64.380    598.100    598.541    574.930  0.001672 6239
  64.390    596.590    598.602    574.874  0.001676 6240
  64.400    599.380    598.617    574.817  0.001668 6241
  64.410    595.490    598.637    574.761  0.001679 6242
  64.420    600.520    598.631    574.704  0.001665 6243
  64.430    599.230    598.624    574.648  0.001669 6244
  64.440    600.080    598.637    574.591  0.001666 6245
  64.450    597.970    598.620    574.533  0.001672 6246
  64.460    598.870    598.575    574.476  0.001670 6247
  64.470    594.200    598.525    574.419  0.001683 6248
  64.480    596.690    598.465    574.361  0.001676 6249
  64.490    597.640    598.382    574.303  0.001673 6250
  64.500    603.010    598.277    574.245  0.001658 6251
  64.510    598.680    598.210    574.187  0.001670 6252
  64.520    601.820    598.103    574.129  0.001662 6253
  64.530    594.740    598.003    574.071  0.001681 6254
  64.540    600.130    597.888    574.012  0.001666 6255
  64.550    599.240    597.781    573.954  0.001669 6256
  64.560    601.710    597.683    573.895  0.001662 6257
  64.570    595.750    597.578    573.836  0.001679 6258
  64.580    601.110    597.476    573.777  0.001664 6259
  64.590    595.470    597.359    573.718  0.001679 6260
  64.600    596.670    597.262    573.659  0.001676 6261
  64.610    596.710    597.157    573.599  0.001676 6262
  64.620    600.150    597.076    573.540  0.001666 6263
  64.630    600.030    596.982    573.480  0.001667 6264
  64.640    603.140    596.905    573.420  0.001658 6265
  64.650    597.440    596.832    573.361  0.001674 6266
  64.660    599.370    596.744    573.301  0.001668 6267
  64.670    598.010    596.688    573.241  0.001672 6268
  64.680    602.450    596.616    573.180  0.001660 6269
  64.690    600.500    596.559    573.120  0.001665 6270
  64.700    600.180    596.483    573.060  0.001666 6271
  64.710    596.110    596.426    572.999  0.001678 6272
  64.720    600.590    596.394    572.939  0.001665 6273
  64.730    599.150    596.313    572.878  0.001669 6274
  64.740    599.250    596.268    572.817  0.001669 6275
  64.750    597.870    596.197    572.757  0.001673 6276
  64.760    597.260    596.149    572.696  0.001674 6277
  64.770    593.270    596.067    572.635  0.001686 6278
  64.780    594.990    595.976    572.574  0.001681 6279
  64.790    595.770    595.875    572.512  0.001679 6280
  64.800    596.840    595.776    572.451  0.001675 6281
  64.810    592.000    595.639    572.390  0.001689 6282
  64.820    593.920    595.553    572.329  0.001684 6283
  64.830    589.920    595.423    572.267  0.001695 6284
  64.840    596.160    595.253    572.206  0.001677 6285
  64.850    592.430    595.133    572.144  0.001688 6286
  64.860    594.790    594.998    572.083  0.001681 6287
  64.870    592.350    594.864    572.021  0.001688 6288
  64.880    595.700    594.690    571.959  0.001679 6289
  64.890    592.710    594.533    571.898  0.001687 6290
  64.900    595.700    594.374    571.836  0.001679 6291
  64.910    595.330    594.214    571.774  0.001680 6292
  64.920    597.880    594.054    571.712  0.001673 6293
  64.930    593.820    593.888    571.650  0.001684 6294
  64.940    597.960    593.764    571.588  0.001672 6295
  64.950    590.300    593.614    571.526  0.001694 6296
  64.960    592.480    593.459    571.464  0.001688 6297
  64.970    594.470    593.312    571.402  0.001682 6298
  64.980    597.190    593.152    571.340  0.001675 6299
  64.990    594.020    593.019    571.278  0.001683 6300
  65.000    596.150    592.891    571.216  0.001677 6301
  65.010    588.870    592.794    571.154  0.001698 6302
  65.020    592.920    592.686    571.092  0.001687 6303
  65.030    591.840    592.614    571.030  0.001690 6304
  65.040    594.500    592.502    570.968  0.001682 6305
  65.050    593.210    592.435    570.906  0.001686 6306
  65.060    593.610    592.363    570.844  0.001685 6307
  65.070    589.950    592.273    570.782  0.001695 6308
  65.080    595.640    592.182    570.719  0.001679 6309
  65.090    592.900    592.101    570.657  0.001687 6310
  65.100    594.520    592.050    570.595  0.001682 6311
  65.110    593.030    591.979    570.533  0.001686 6312
  65.120    597.300    591.877    570.471  0.001674 6313
  65.130    591.680    591.791    570.409  0.001690 6314
  65.140    593.170    591.711    570.347  0.001686 6315
  65.150    593.190    591.666    570.285  0.001686 6316
  65.160    597.080    591.566    570.223  0.001675 6317
  65.170    593.580    591.474    570.161  0.001685 6318
  65.180    594.290    591.400    570.099  0.001683 6319
  65.190    589.230    591.302    570.037  0.001697 6320
  65.200    594.670    591.201    569.975  0.001682 6321
  65.210    591.050    591.099    569.914  0.001692 6322
  65.220    591.560    590.983    569.852  0.001690 6323
  65.230    590.830    590.901    569.790  0.001693 6324
  65.240    591.990    590.811    569.728  0.001689 6325
  65.250    587.360    590.741    569.667  0.001703 6326
  65.260    591.350    590.644    569.605  0.001691 6327
  65.270    589.740    590.548    569.543  0.001696 6328
  65.280    589.870    590.446    569.482  0.001695 6329
  65.290    590.070    590.328    569.420  0.001695 6330
  65.300    594.380    590.239    569.359  0.001682 6331
  65.310    586.320    590.167    569.298  0.001706 6332
  65.320    591.290    590.080    569.236  0.001691 6333
  65.330    589.060    590.012    569.175  0.001698 6334
  65.340    591.590    589.957    569.114  0.001690 6335
  65.350    589.780    589.869    569.053  0.001696 6336
  65.360    595.130    589.817    568.992  0.001680 6337
  65.370    588.210    589.775    568.931  0.001700 6338
  65.380    593.980    589.740    568.870  0.001684 6339
  65.390    589.670    589.724    568.809  0.001696 6340
  65.400    587.370    589.661    568.748  0.001703 6341
  65.410    590.160    589.628    568.687  0.001694 6342
  65.420    591.940    589.638    568.627  0.001689 6343
  65.430    584.730    589.664    568.566  0.001710 6344
  65.440    589.160    589.704    568.506  0.001697 6345
  65.450    588.840    589.751    568.445  0.001698 6346
  65.460    590.520    589.788    568.385  0.001693 6347
  65.470    590.870    589.853    568.325  0.001692 6348
  65.480    590.990    589.917    568.265  0.001692 6349
  65.490    590.470    589.978    568.204  0.001694 6350
  65.500    590.100    590.059    568.144  0.001695 6351
  65.510    588.090    590.137    568.085  0.001700 6352
  65.520    591.590    590.235    568.025  0.001690 6353
  65.530    589.540    590.332    567.965  0.001696 6354
  65.540    589.760    590.421    567.905  0.001696 6355
  65.550    585.450    590.512    567.846  0.001708 6356
  65.560    593.500    590.622    567.787  0.001685 6357
  65.570    592.750    590.741    567.727  0.001687 6358
  65.580    593.900    590.838    567.668  0.001684 6359
  65.590    590.860    590.930    567.609  0.001692 6360
  65.600    594.760    591.025    567.550  0.001681 6361
  65.610    589.420    591.082    567.491  0.001697 6362
  65.620    593.530    591.196    567.432  0.001685 6363
  65.630    592.690    591.287    567.373  0.001687 6364
  65.640    592.850    591.339    567.315  0.001687 6365
  65.650    591.590    591.433    567.256  0.001690 6366
  65.660    594.400    591.514    567.198  0.001682 6367
  65.670    593.050    591.561    567.140  0.001686 6368
  65.680    594.330    591.658    567.082  0.001683 6369
  65.690    592.650    591.662    567.023  0.001687 6370
  65.700    593.340    591.688    566.966  0.001685 6371
  65.710    593.710    591.723    566.908  0.001684 6372
  65.720    595.040    591.744    566.850  0.001681 6373
  65.730    590.590    591.745    566.792  0.001693 6374
  65.740    592.500    591.742    566.735  0.001688 6375
  65.750    592.060    591.756    566.678  0.001689 6376
  65.760    593.240    591.751    566.620  0.001686 6377
  65.770    593.380    591.726    566.563  0.001685 6378
  65.780    591.150    591.709    566.506  0.001692 6379
  65.790    587.110    591.662    566.449  0.001703 6380
  65.800    590.330    591.624    566.393  0.001694 6381
  65.810    589.010    591.575    566.336  0.001698 6382
  65.820    594.030    591.475    566.279  0.001683 6383
  65.830    590.230    591.384    566.223  0.001694 6384
  65.840    594.720    591.270    566.167  0.001681 6385
  65.850    587.340    591.149    566.111  0.001703 6386
  65.860    592.150    591.019    566.055  0.001689 6387
  65.870    592.500    590.905    565.999  0.001688 6388
  65.880    595.710    590.810    565.943  0.001679 6389
  65.890    593.640    590.670    565.887  0.001685 6390
  65.900    596.470    590.517    565.832  0.001677 6391
  65.910    593.140    590.346    565.776  0.001686 6392
  65.920    595.160    590.187    565.721  0.001680 6393
  65.930    594.150    590.035    565.666  0.001683 6394
  65.940    594.610    589.893    565.611  0.001682 6395
  65.950    593.490    589.723    565.556  0.001685 6396
  65.960    594.930    589.574    565.502  0.001681 6397
  65.970    590.330    589.427    565.447  0.001694 6398
  65.980    597.030    589.265    565.393  0.001675 6399
  65.990    594.300    589.156    565.338  0.001683 6400
  66.000    596.380    589.033    565.284  0.001677 6401
  66.010    589.310    588.907    565.230  0.001697 6402
  66.020    593.840    588.805    565.176  0.001684 6403
  66.030    591.410    588.683    565.122  0.001691 6404
  66.040    594.290    588.575    565.069  0.001683 6405
  66.050    592.400    588.467    565.015  0.001688 6406
  66.060    595.390    588.350    564.962  0.001680 6407
  66.070    591.180    588.267    564.908  0.001692 6408
  66.080    594.600    588.157    564.855  0.001682 6409
  66.090    588.870    588.144    564.802  0.001698 6410
  66.100    589.350    588.091    564.749  0.001697 6411
  66.110    590.530    588.038    564.697  0.001693 6412
  66.120    594.640    587.994    564.644  0.001682 6413
  66.130    593.070    587.961    564.592  0.001686 6414
  66.140    594.840    587.927    564.539  0.001681 6415
  66.150    588.620    587.951    564.487  0.001699 6416
  66.160    594.720    587.956    564.435  0.001681 6417
  66.170    592.990    587.969    564.383  0.001686 6418
  66.180    596.360    588.028    564.332  0.001677 6419
  66.190    593.880    588.037    564.280  0.001684 6420
  66.200    596.010    588.077    564.229  0.001678 6421
  66.210    590.450    588.142    564.177  0.001694 6422
  66.220    594.390    588.176    564.126  0.001682 6423
  66.230    594.100    588.205    564.075  0.001683 6424
  66.240    596.630    588.256    564.024  0.001676 6425
  66.250    593.240    588.309    563.973  0.001686 6426
  66.260    596.420    588.352    563.923  0.001677 6427
  66.270    592.650    588.395    563.872  0.001687 6428
  66.280    596.480    588.437    563.822  0.001677 6429
  66.290    593.040    588.498    563.772  0.001686 6430
  66.300    597.540    588.563    563.722  0.001674 6431
  66.310    592.540    588.606    563.672  0.001688 6432
  66.320    594.110    588.652    563.622  0.001683 6433
  66.330    590.100    588.692    563.572  0.001695 6434
  66.340    594.000    588.755    563.523  0.001684 6435
  66.350    593.160    588.766    563.473  0.001686 6436
  66.360    598.040    588.782    563.424  0.001672 6437
  66.370    594.710    588.817    563.375  0.001681 6438
  66.380    594.490    588.823    563.326  0.001682 6439
  66.390    591.490    588.807    563.277  0.001691 6440
  66.400    590.830    588.781    563.228  0.001693 6441
  66.410    593.370    588.734    563.180  0.001685 6442
  66.420    593.700    588.696    563.131  0.001684 6443
  66.430    592.330    588.640    563.083  0.001688 6444
  66.440    594.370    588.579    563.035  0.001682 6445
  66.450    590.980    588.477    562.987  0.001692 6446
  66.460    594.430    588.385    562.939  0.001682 6447
  66.470    594.330    588.286    562.891  0.001683 6448
  66.480    594.790    588.124    562.843  0.001681 6449
  66.490    593.930    588.017    562.796  0.001684 6450
  66.500    594.870    587.900    562.749  0.001681 6451
  66.510    590.220    587.791    562.701  0.001694 6452
  66.520    597.600    587.691    562.654  0.001673 6453
  66.530    594.650    587.622    562.607  0.001682 6454
  66.540    596.250    587.536    562.561  0.001677 6455
  66.550    596.790    587.443    562.514  0.001676 6456
  66.560    595.930    587.375    562.467  0.001678 6457
  66.570    593.480    587.282    562.421  0.001685 6458
  66.580    594.480    587.207    562.375  0.001682 6459
  66.590    591.540    587.109    562.329  0.001691 6460
  66.600    594.380    587.027    562.283  0.001682 6461
  66.610    591.970    586.961    562.237  0.001689 6462
  66.620    594.120    586.852    562.191  0.001683 6463
  66.630    586.590    586.777    562.145  0.001705 6464
  66.640    593.150    586.726    562.100  0.001686 6465
  66.650    589.840    586.677    562.055  0.001695 6466
  66.660    590.840    586.632    562.009  0.001693 6467
  66.670    587.670    586.561    561.964  0.001702 6468
  66.680    590.180    586.524    561.919  0.001694 6469
  66.690    587.230    586.475    561.875  0.001703 6470
  66.700    590.150    586.400    561.830  0.001694 6471
  66.710    590.670    586.356    561.785  0.001693 6472
  66.720    594.900    586.275    561.741  0.001681 6473
  66.730    590.240    586.193    561.697  0.001694 6474
  66.740    591.470    586.084    561.652  0.001691 6475
  66.750    584.790    585.991    561.608  0.001710 6476
  66.760    587.510    585.899    561.565  0.001702 6477
  66.770    587.000    585.766    561.521  0.001704 6478
  66.780    592.200    585.630    561.477  0.001689 6479
  66.790    585.360    585.500    561.434  0.001708 6480
  66.800    589.980    585.370    561.390  0.001695 6481
  66.810    584.550    585.195    561.347  0.001711 6482
  66.820    591.150    585.030    561.304  0.001692 6483
  66.830    587.890    584.863    561.261  0.001701 6484
  66.840    586.410    584.701    561.218  0.001705 6485
  66.850    583.380    584.525    561.175  0.001714 6486
  66.860    586.280    584.336    561.132  0.001706 6487
  66.870    579.150    584.158    561.090  0.001727 6488
  66.880    584.240    583.974    561.048  0.001712 6489
  66.890    584.760    583.780    561.005  0.001710 6490
  66.900    587.160    583.606    560.963  0.001703 6491
  66.910    581.710    583.443    560.921  0.001719 6492
  66.920    581.470    583.289    560.879  0.001720 6493
  66.930    579.470    583.099    560.837  0.001726 6494
  66.940    581.490    582.934    560.796  0.001720 6495
  66.950    581.950    582.788    560.754  0.001718 6496
  66.960    581.910    582.645    560.713  0.001718 6497
  66.970    584.640    582.493    560.672  0.001710 6498
  66.980    583.270    582.374    560.630  0.001714 6499
  66.990    579.270    582.199    560.589  0.001726 6500
  67.000    583.200    582.056    560.548  0.001715 6501
  67.010    582.490    581.878    560.508  0.001717 6502
  67.020    585.880    581.714    560.467  0.001707 6503
  67.030    585.260    581.585    560.426  0.001709 6504
  67.040    587.300    581.430    560.386  0.001703 6505
  67.050    579.000    581.282    560.346  0.001727 6506
  67.060    583.930    581.160    560.305  0.001713 6507
  67.070    582.130    581.021    560.265  0.001718 6508
  67.080    582.660    580.923    560.225  0.001716 6509
  67.090    581.980    580.821    560.185  0.001718 6510
  67.100    583.830    580.767    560.146  0.001713 6511
  67.110    576.980    580.671    560.106  0.001733 6512
  67.120    585.290    580.574    560.067  0.001709 6513
  67.130    583.660    580.474    560.027  0.001713 6514
  67.140    585.050    580.441    559.988  0.001709 6515
  67.150    585.470    580.405    559.949  0.001708 6516
  67.160    587.230    580.355    559.910  0.001703 6517
  67.170    582.230    580.303    559.871  0.001718 6518
  67.180    584.990    580.274    559.832  0.001709 6519
  67.190    586.160    580.222    559.793  0.001706 6520
  67.200    586.970    580.214    559.754  0.001704 6521
  67.210    583.930    580.199    559.716  0.001713 6522
  67.220    584.480    580.188    559.678  0.001711 6523
  67.230    578.480    580.189    559.639  0.001729 6524
  67.240    584.120    580.152    559.601  0.001712 6525
  67.250    581.660    580.166    559.563  0.001719 6526
  67.260    581.960    580.158    559.525  0.001718 6527
  67.270    580.010    580.162    559.487  0.001724 6528
  67.280    585.050    580.136    559.450  0.001709 6529
  67.290    577.430    580.099    559.412  0.001732 6530
  67.300    579.860    580.083    559.374  0.001725 6531
  67.310    581.540    580.073    559.337  0.001720 6532
  67.320    582.810    580.072    559.300  0.001716 6533
  67.330    582.440    580.032    559.262  0.001717 6534
  67.340    584.170    580.021    559.225  0.001712 6535
  67.350    578.830    579.975    559.188  0.001728 6536
  67.360    578.930    579.947    559.152  0.001727 6537
  67.370    577.980    579.948    559.115  0.001730 6538
  67.380    580.170    579.886    559.078  0.001724 6539
  67.390    577.410    579.865    559.041  0.001732 6540
  67.400    580.230    579.849    559.005  0.001723 6541
  67.410    577.100    579.857    558.969  0.001733 6542
  67.420    583.100    579.883    558.932  0.001715 6543
  67.430    581.860    579.914    558.896  0.001719 6544
  67.440    582.950    579.935    558.860  0.001715 6545
  67.450    581.630    579.974    558.824  0.001719 6546
  67.460    583.090    579.993    558.788  0.001715 6547
  67.470    578.580    580.019    558.753  0.001728 6548
  67.480    581.580    580.074    558.717  0.001719 6549
  67.490    582.980    580.126    558.681  0.001715 6550
  67.500    583.060    580.177    558.646  0.001715 6551
  67.510    581.420    580.253    558.611  0.001720 6552
  67.520    584.350    580.339    558.575  0.001711 6553
  67.530    581.870    580.437    558.540  0.001719 6554
  67.540    584.760    580.547    558.505  0.001710 6555
  67.550    583.090    580.611    558.470  0.001715 6556
  67.560    585.780    580.695    558.435  0.001707 6557
  67.570    580.350    580.784    558.401  0.001723 6558
  67.580    586.220    580.863    558.366  0.001706 6559
  67.590    579.650    580.966    558.331  0.001725 6560
  67.600    587.060    581.025    558.297  0.001703 6561
  67.610    584.020    581.115    558.262  0.001712 6562
  67.620    588.810    581.208    558.228  0.001698 6563
  67.630    583.930    581.271    558.194  0.001713 6564
  67.640    584.710    581.321    558.160  0.001710 6565
  67.650    579.750    581.326    558.126  0.001725 6566
  67.660    583.770    581.297    558.092  0.001713 6567
  67.670    582.680    581.337    558.058  0.001716 6568
  67.680    585.950    581.349    558.024  0.001707 6569
  67.690    584.370    581.375    557.991  0.001711 6570
  67.700    585.840    581.367    557.957  0.001707 6571
  67.710    581.420    581.360    557.924  0.001720 6572
  67.720    583.350    581.379    557.890  0.001714 6573
  67.730    583.890    581.372    557.857  0.001713 6574
  67.740    587.320    581.310    557.824  0.001703 6575
  67.750    586.340    581.261    557.791  0.001705 6576
  67.760    589.580    581.225    557.758  0.001696 6577
  67.770    580.340    581.202    557.725  0.001723 6578
  67.780    584.510    581.151    557.692  0.001711 6579
  67.790    583.070    581.072    557.659  0.001715 6580
  67.800    587.570    580.975    557.627  0.001702 6581
  67.810    585.370    580.886    557.594  0.001708 6582
  67.820    586.070    580.805    557.562  0.001706 6583
  67.830    583.820    580.723    557.529  0.001713 6584
  67.840    585.610    580.626    557.497  0.001708 6585
  67.850    581.200    580.526    557.465  0.001721 6586
  67.860    587.110    580.373    557.432  0.001703 6587
  67.870    585.500    580.272    557.400  0.001708 6588
  67.880    583.890    580.098    557.368  0.001713 6589
  67.890    582.840    579.923    557.337  0.001716 6590
  67.900    587.320    579.737    557.305  0.001703 6591
  67.910    586.520    579.545    557.273  0.001705 6592
  67.920    586.480    579.357    557.241  0.001705 6593
  67.930    585.230    579.174    557.210  0.001709 6594
  67.940    584.280    578.980    557.178  0.001712 6595
  67.950    581.260    578.762    557.147  0.001720 6596
  67.960    583.710    578.539    557.116  0.001713 6597
  67.970    580.100    578.318    557.085  0.001724 6598
  67.980    582.330    578.110    557.053  0.001717 6599
  67.990    577.720    577.878    557.022  0.001731 6600
  68.000    579.100    577.707    556.991  0.001727 6601
  68.010    577.190    577.488    556.960  0.001733 6602
  68.020    580.810    577.305    556.930  0.001722 6603
  68.030    577.820    577.110    556.899  0.001731 6604
  68.040    580.180    576.933    556.868  0.001724 6605
  68.050    579.630    576.753    556.838  0.001725 6606
  68.060    580.950    576.651    556.807  0.001721 6607
  68.070    578.660    576.498    556.777  0.001728 6608
  68.080    580.140    576.382    556.746  0.001724 6609
  68.090    580.650    576.293    556.716  0.001722 6610
  68.100    583.060    576.172    556.686  0.001715 6611
  68.110    580.970    576.074    556.656  0.001721 6612
  68.120    582.870    575.990    556.626  0.001716 6613
  68.130    579.450    575.890    556.596  0.001726 6614
  68.140    577.720    575.801    556.566  0.001731 6615
  68.150    576.450    575.706    556.536  0.001735 6616
  68.160    581.550    575.594    556.506  0.001720 6617
  68.170    576.140    575.532    556.477  0.001736 6618
  68.180    577.360    575.431    556.447  0.001732 6619
  68.190    573.940    575.320    556.418  0.001742 6620
  68.200    580.820    575.237    556.388  0.001722 6621
  68.210    577.720    575.162    556.359  0.001731 6622
  68.220    580.860    575.037    556.330  0.001722 6623
  68.230    577.840    574.938    556.300  0.001731 6624
  68.240    577.800    574.845    556.271  0.001731 6625
  68.250    576.040    574.739    556.242  0.001736 6626
  68.260    580.570    574.648    556.213  0.001722 6627
  68.270    579.300    574.525    556.184  0.001726 6628
  68.280    579.280    574.427    556.155  0.001726 6629
  68.290    576.470    574.316    556.127  0.001735 6630
  68.300    578.380    574.204    556.098  0.001729 6631
  68.310    576.460    574.084    556.069  0.001735 6632
  68.320    577.740    573.949    556.041  0.001731 6633
  68.330    579.320    573.813    556.012  0.001726 6634
  68.340    579.360    573.685    555.984  0.001726 6635
  68.350    575.460    573.548    555.955  0.001738 6636
  68.360    575.910    573.432    555.927  0.001736 6637
  68.370    572.680    573.308    555.899  0.001746 6638
  68.380    574.600    573.197    555.871  0.001740 6639
  68.390    576.610    573.089    555.843  0.001734 6640
  68.400    578.080    573.017    555.815  0.001730 6641
  68.410    577.240    572.911    555.787  0.001732 6642
  68.420    581.120    572.833    555.759  0.001721 6643
  68.430    575.190    572.723    555.731  0.001739 6644
  68.440    577.200    572.641    555.703  0.001733 6645
  68.450    573.790    572.576    555.676  0.001743 6646
  68.460    574.960    572.492    555.648  0.001739 6647
  68.470    570.660    572.435    555.620  0.001752 6648
  68.480    573.850    572.374    555.593  0.001743 6649
  68.490    570.190    572.347    555.566  0.001754 6650
  68.500    571.550    572.302    555.538  0.001750 6651
  68.510    570.010    572.288    555.511  0.001754 6652
  68.520    571.380    572.324    555.484  0.001750 6653
  68.530    571.180    572.316    555.456  0.001751 6654
  68.540    573.570    572.346    555.429  0.001743 6655
  68.550    565.230    572.371    555.402  0.001769 6656
  68.560    574.900    572.410    555.375  0.001739 6657
  68.570    572.850    572.480    555.348  0.001746 6658
  68.580    576.510    572.531    555.322  0.001735 6659
  68.590    571.690    572.618    555.295  0.001749 6660
  68.600    573.950    572.710    555.268  0.001742 6661
  68.610    573.210    572.783    555.241  0.001745 6662
  68.620    576.930    572.872    555.215  0.001733 6663
  68.630    576.470    572.982    555.188  0.001735 6664
  68.640    579.180    573.096    555.162  0.001727 6665
  68.650    574.650    573.204    555.135  0.001740 6666
  68.660    576.020    573.325    555.109  0.001736 6667
  68.670    573.990    573.431    555.083  0.001742 6668
  68.680    578.380    573.510    555.057  0.001729 6669
  68.690    577.170    573.651    555.030  0.001733 6670
  68.700    578.120    573.782    555.004  0.001730 6671
  68.710    576.370    573.903    554.978  0.001735 6672
  68.720    579.570    574.016    554.952  0.001725 6673
  68.730    575.800    574.133    554.926  0.001737 6674
  68.740    576.930    574.254    554.900  0.001733 6675
  68.750    575.070    574.366    554.875  0.001739 6676
  68.760    578.850    574.450    554.849  0.001728 6677
  68.770    574.510    574.556    554.823  0.001741 6678
  68.780    576.690    574.670    554.798  0.001734 6679
  68.790    571.960    574.762    554.772  0.001748 6680
  68.800    576.400    574.875    554.746  0.001735 6681
  68.810    573.810    574.964    554.721  0.001743 6682
  68.820    577.850    575.074    554.696  0.001731 6683
  68.830    577.170    575.179    554.670  0.001733 6684
  68.840    579.260    575.250    554.645  0.001726 6685
  68.850    575.080    575.302    554.620  0.001739 6686
  68.860    577.900    575.363    554.594  0.001730 6687
  68.870    577.550    575.438    554.569  0.001731 6688
  68.880    576.310    575.506    554.544  0.001735 6689
  68.890    578.510    575.553    554.519  0.001729 6690
  68.900    578.470    575.559    554.494  0.001729 6691
  68.910    574.840    575.592    554.469  0.001740 6692
  68.920    579.910    575.614    554.444  0.001724 6693
  68.930    577.150    575.643    554.420  0.001733 6694
  68.940    579.510    575.688    554.395  0.001726 6695
  68.950    577.000    575.734    554.370  0.001733 6696
  68.960    579.380    575.771    554.346  0.001726 6697
  68.970    576.530    575.797    554.321  0.001735 6698
  68.980    577.700    575.820    554.296  0.001731 6699
  68.990    578.930    575.826    554.272  0.001727 6700
  69.000    580.640    575.782    554.248  0.001722 6701
  69.010    576.990    575.759    554.223  0.001733 6702
  69.020    577.830    575.714    554.199  0.001731 6703
  69.030    574.820    575.702    554.175  0.001740 6704
  69.040    577.340    575.674    554.150  0.001732 6705
  69.050    577.190    575.680    554.126  0.001733 6706
  69.060    576.670    575.672    554.102  0.001734 6707
  69.070    577.360    575.638    554.078  0.001732 6708
  69.080    575.980    575.603    554.054  0.001736 6709
  69.090    571.990    575.524    554.030  0.001748 6710
  69.100    574.370    575.509    554.006  0.001741 6711
  69.110    569.970    575.476    553.982  0.001754 6712
  69.120    577.680    575.409    553.958  0.001731 6713
  69.130    573.760    575.378    553.935  0.001743 6714
  69.140    579.010    575.337    553.911  0.001727 6715
  69.150    573.120    575.297    553.887  0.001745 6716
  69.160    577.610    575.242    553.864  0.001731 6717
  69.170    575.690    575.222    553.840  0.001737 6718
  69.180    578.250    575.201    553.817  0.001729 6719
  69.190    576.400    575.169    553.793  0.001735 6720
  69.200    578.750    575.168    553.770  0.001728 6721
  69.210    570.490    575.159    553.746  0.001753 6722
  69.220    573.430    575.165    553.723  0.001744 6723
  69.230    576.720    575.170    553.700  0.001734 6724
  69.240    578.830    575.169    553.677  0.001728 6725
  69.250    577.190    575.179    553.653  0.001733 6726
  69.260    577.450    575.209    553.630  0.001732 6727
  69.270    575.010    575.262    553.607  0.001739 6728
  69.280    574.530    575.298    553.584  0.001741 6729
  69.290    574.540    575.344    553.561  0.001741 6730
  69.300    578.720    575.355    553.538  0.001728 6731
  69.310    577.890    575.376    553.515  0.001730 6732
  69.320    576.930    575.413    553.493  0.001733 6733
  69.330    573.350    575.446    553.470  0.001744 6734
  69.340    577.620    575.466    553.447  0.001731 6735
  69.350    576.680    575.488    553.424  0.001734 6736
  69.360    578.660    575.500    553.402  0.001728 6737
  69.370    575.660    575.491    553.379  0.001737 6738
  69.380    580.100    575.478    553.356  0.001724 6739
  69.390    569.710    575.475    553.334  0.001755 6740
  69.400    573.990    575.430    553.311  0.001742 6741
  69.410    577.200    575.393    553.289  0.001733 6742
  69.420    578.840    575.348    553.267  0.001728 6743
  69.430    574.450    575.285    553.244  0.001741 6744
  69.440    576.780    575.207    553.222  0.001734 6745
  69.450    571.800    575.099    553.200  0.001749 6746
  69.460    574.200    575.007    553.178  0.001742 6747
  69.470    572.060    574.872    553.155  0.001748 6748
  69.480    574.330    574.716    553.133  0.001741 6749
  69.490    572.630    574.565    553.111  0.001746 6750
  69.500    576.470    574.392    553.089  0.001735 6751
  69.510    568.600    574.237    553.067  0.001759 6752
  69.520    575.580    574.070    553.045  0.001737 6753
  69.530    570.360    573.873    553.023  0.001753 6754
  69.540    573.810    573.666    553.001  0.001743 6755
  69.550    569.660    573.464    552.980  0.001755 6756
  69.560    572.890    573.246    552.958  0.001746 6757
  69.570    567.080    573.027    552.936  0.001763 6758
  69.580    569.960    572.759    552.914  0.001755 6759
  69.590    566.480    572.512    552.893  0.001765 6760
  69.600    573.530    572.243    552.871  0.001744 6761
  69.610    570.180    571.977    552.849  0.001754 6762
  69.620    573.380    571.725    552.828  0.001744 6763
  69.630    569.250    571.464    552.806  0.001757 6764
  69.640    572.460    571.185    552.785  0.001747 6765
  69.650    571.350    570.876    552.764  0.001750 6766
  69.660    571.130    570.592    552.742  0.001751 6767
  69.670    568.010    570.281    552.721  0.001761 6768
  69.680    568.440    570.027    552.700  0.001759 6769
  69.690    567.570    569.752    552.678  0.001762 6770
  69.700    569.080    569.475    552.657  0.001757 6771
  69.710    568.650    569.200    552.636  0.001759 6772
  69.720    566.390    568.900    552.615  0.001766 6773
  69.730    566.810    568.589    552.594  0.001764 6774
  69.740    568.250    568.281    552.573  0.001760 6775
  69.750    568.900    568.002    552.552  0.001758 6776
  69.760    570.120    567.734    552.531  0.001754 6777
  69.770    566.900    567.475    552.510  0.001764 6778
  69.780    569.880    567.210    552.489  0.001755 6779
  69.790    568.890    566.937    552.468  0.001758 6780
  69.800    566.510    566.664    552.447  0.001765 6781
  69.810    561.730    566.404    552.426  0.001780 6782
  69.820    564.790    566.094    552.406  0.001771 6783
  69.830    563.200    565.807    552.385  0.001776 6784
  69.840    565.490    565.521    552.364  0.001768 6785
  69.850    562.040    565.246    552.344  0.001779 6786
  69.860    569.330    564.976    552.323  0.001756 6787
  69.870    563.790    564.683    552.303  0.001774 6788
  69.880    565.880    564.368    552.282  0.001767 6789
  69.890    561.530    564.085    552.262  0.001781 6790
  69.900    568.030    563.798    552.241  0.001760 6791
  69.910    564.650    563.496    552.221  0.001771 6792
  69.920    568.420    563.189    552.200  0.001759 6793
  69.930    561.300    562.878    552.180  0.001782 6794
  69.940    564.340    562.554    552.160  0.001772 6795
  69.950    562.710    562.226    552.140  0.001777 6796
  69.960    564.740    561.887    552.119  0.001771 6797
  69.970    565.520    561.575    552.099  0.001768 6798
  69.980    566.580    561.256    552.079  0.001765 6799
  69.990    561.690    560.912    552.059  0.001780 6800
  70.000    566.320    560.560    552.039  0.001766 6801



_exptl_crystal_density_diffrn
1.516
_refine_diff_density_min
-0.268
_refine_ls_goodness_of_fit_all
2.56
_chemical_formula_iupac
'[Fe2 (C5 H5)2 (C40 H22 O2)]'
_chemical_formula_structural
'C50 H32 Fe2 O2'
_cell_formula_units_Z
2
_pd_meas_scan_method
fixed
_pd_proc_ls_profile_function
'split-Pearson7'
_chemical_formula_moiety
'C50 H32 Fe2 O2'
_cell_length_a
7.44120(10)
_cell_length_b
10.05760(10)
_pd_proc_info_excluded_regions
none
_cell_length_c
23.0738(3)
_pd_proc_2theta_range_inc
0.010
_chemical_formula_analytical
'C50 H32 Fe2 O2'
_pd_proc_ls_prof_wR_factor
0.010
_pd_block_diffractogram_id
2013-03-03T09:00|14FcPhAq-90|E._Nishibori|LDScamera.BL02B2.SPring8
_pd_spec_mounting
capillary
_diffrn_radiation_type
'synchrotron'
_symmetry_space_group_name_Hall
'-P 1'
_chemical_formula_weight
776.46
_computing_molecular_graphics
;
PyMOL (DeLano, 2002) and Mercury (Macrae <i>et al.</i>, 2008)
;
_refine_ls_number_restraints
402
_computing_structure_refinement
'SP (Nishibori <i>et al.</i>, 2007)'
_pd_proc_ls_background_function
'split-Pearson7 and polynomial function'
_refine_ls_number_constraints
0
_refine_ls_weighting_scheme
sigma
_symmetry_space_group_name_H-M
'P -1'
_cell_angle_gamma
97.1347(10)
_cell_measurement_temperature
90
_pd_meas_2theta_range_inc
0.010
_computing_data_reduction
'Missing'
_computing_cell_refinement
'SP (Nishibori <i>et al.</i>, 2007)'
_computing_publication_material
'publCIF (Westrip, 2010)'
_pd_char_colour
brown
_refine_ls_shift/su_max
0.02
_pd_proc_ls_prof_R_factor
0.007
_diffrn_radiation_monochromator
Si(111)
_chemical_name_systematic
;
1,4-Bis[2-(4-ferrocenylphenyl)ethynyl]anthraquinone
;
_computing_structure_solution
'GAIA (Nishibori, Ogura <i>et al.</i>, 2008)'
_pd_meas_number_of_points
7514
_cell_volume
1700.84(4)
_refine_ls_structure_factor_coef
Inet
_refine_ls_hydrogen_treatment
refall
_exptl_crystal_F_000
800.0
_symmetry_cell_setting
triclinic
_pd_proc_ls_prof_wR_expected
0.006
_pd_spec_size_equat
0.4
_diffrn_ambient_temperature
90
_refine_diff_density_max
0.619
_exptl_absorpt_coefficient_mu
2.262
_chemical_name_common
'1,4-bis(ferrocenylphenylethynyl)anthraquinone'
_refine_ls_R_factor_all
0.030
_refine_ls_restrained_S_all
1.6
_diffrn_radiation_wavelength
1.00123
_pd_spec_shape
cylinder
_computing_data_collection
'local software (Nishibori <i>et al.</i>, 2001)'
_refine_ls_extinction_method
none
_diffrn_measurement_device_type
'large Debye-Scherrer camera'
_cell_angle_alpha
93.1684(12)
_refine_ls_number_parameters
264
_pd_meas_2theta_range_min
0.010
_chemical_formula_sum
'C50 H32 Fe2 O2'
_pd_spec_size_axial
3
_refine_ls_matrix_type
full
_cell_angle_beta
95.7542(15)
_pd_proc_info_data_reduction
none
_pd_meas_2theta_range_max
75.140
_pd_proc_wavelength
1.00123
_pd_spec_mount_mode
transmission
_pd_proc_ls_pref_orient_corr
none
loop_
_symmetry_equiv_pos_site_id
_symmetry_equiv_pos_as_xyz
1 +x,+y,+z
2 -x,-y,-z

loop_
_atom_type_symbol
_atom_type_description
_atom_type_scat_dispersion_real
_atom_type_scat_dispersion_imag
_atom_type_scat_source
Fe Fe . . 
;International Tables for Crystallography (Vol. IV)
;
O O . . 
;International Tables for Crystallography (Vol. IV)
;
C C . . 
;International Tables for Crystallography (Vol. IV)
;
H H . . 
;International Tables for Crystallography (Vol. IV)
;

loop_
_atom_site_type_symbol
_atom_site_label
_atom_site_fract_x
_atom_site_fract_y
_atom_site_fract_z
_atom_site_u_iso_or_equiv
_atom_site_adp_type
_atom_site_calc_flag
_atom_site_occupancy
_atom_site_symmetry_multiplicity
C C1 0.2522(7) 0.6401(3) 0.57410(10) 0.014(8) Uiso d 1.00 1
C C2 0.1938(7) 0.5022(3) 0.5653(2) 0.014(8) Uiso d 1.00 1
C C3 0.2095(4) 0.4341(2) 0.51190(10) 0.014(8) Uiso d 1.00 1
C C4 0.2836(4) 0.5040(2) 0.46727(9) 0.014(8) Uiso d 1.00 1
C C5 0.3420(7) 0.6421(2) 0.47600(10) 0.014(8) Uiso d 1.00 1
C C6 0.3263(8) 0.7100(3) 0.5295(2) 0.014(8) Uiso d 1.00 1
C C7 0.3118(5) 0.4328(2) 0.41170(10) 0.014(8) Uiso d 1.00 1
C C8 0.1520(6) 0.2873(2) 0.5042(2) 0.014(8) Uiso d 1.00 1
C C9 0.1846(8) 0.0051(3) 0.3928(2) 0.014(8) Uiso d 1.00 1
C C10 0.1510(7) 0.0753(2) 0.4438(2) 0.014(8) Uiso d 1.00 1
C C11 0.1802(4) 0.2158(2) 0.44860(10) 0.014(8) Uiso d 1.00 1
C C12 0.2542(4) 0.2858(3) 0.40400(10) 0.014(8) Uiso d 1.00 1
C C13 0.2841(6) 0.2158(3) 0.35240(10) 0.014(8) Uiso d 1.00 1
C C14 0.2511(8) 0.0754(3) 0.3471(2) 0.014(8) Uiso d 1.00 1
O O15 0.3787(9) 0.4937(3) 0.3728(2) 0.022(8) Uiso d 1.00 1
O O16 0.0851(9) 0.2263(3) 0.5431(2) 0.022(8) Uiso d 1.00 1
C C17 0.4210(10) 0.7214(3) 0.4327(2) 0.014(8) Uiso d 1.00 1
C C18 0.1181(9) 0.4388(3) 0.6135(2) 0.014(8) Uiso d 1.00 1
C C19 0.5771(5) 0.8674(3) 0.35530(10) 0.014(8) Uiso d 1.00 1
C C20 0.4871(5) 0.7976(3) 0.3993(2) 0.014(8) Uiso d 1.00 1
C C21 0.5051(7) 0.8270(4) 0.29770(10) 0.014(8) Uiso d 1.00 1
C C22 0.5636(5) 0.9003(3) 0.25170(10) 0.014(8) Uiso d 1.00 1
C C23 0.6851(3) 1.0190(2) 0.26360(10) 0.014(8) Uiso d 1.00 1
C C24 0.7525(6) 1.0617(3) 0.32130(10) 0.014(8) Uiso d 1.00 1
C C25 0.7031(7) 0.9837(3) 0.36700(10) 0.014(8) Uiso d 1.00 1
C C26 -0.1514(3) 0.2931(2) 0.81514(8) 0.014(8) Uiso d 1.00 1
C C27 -0.0517(6) 0.2061(4) 0.7860(2) 0.014(8) Uiso d 1.00 1
C C28 0.0120(7) 0.2392(4) 0.7329(2) 0.014(8) Uiso d 1.00 1
C C29 -0.0136(6) 0.3633(3) 0.7109(2) 0.014(8) Uiso d 1.00 1
C C30 -0.1080(8) 0.4522(4) 0.7410(3) 0.014(8) Uiso d 1.00 1
C C31 -0.1820(6) 0.4152(3) 0.7921(2) 0.014(8) Uiso d 1.00 1
C C32 0.0546(5) 0.4042(4) 0.65750(10) 0.014(8) Uiso d 1.00 1
C C33 -0.2357(3) 0.1097(2) 0.88663(8) 0.020(8) Uiso d 1.00 1
C C34 -0.2198(3) 0.2473(2) 0.86878(7) 0.020(8) Uiso d 1.00 1
C C35 -0.2842(3) 0.3312(2) 0.91395(9) 0.020(8) Uiso d 1.00 1
C C36 -0.3400(3) 0.2454(2) 0.95974(9) 0.020(8) Uiso d 1.00 1
C C37 -0.3101(3) 0.1085(2) 0.94284(9) 0.020(8) Uiso d 1.00 1
Fe Fe38 -0.0683(3) 0.23790(10) 0.94857(7) 0.0190(10) Uiso d 1.00 1
C C39 0.2012(3) 0.2866(2) 0.93350(8) 0.020(8) Uiso d 1.00 1
C C40 0.1483(3) 0.3863(2) 0.97468(8) 0.020(8) Uiso d 1.00 1
C C41 0.0886(3) 0.3173(2) 1.02483(7) 0.020(8) Uiso d 1.00 1
C C42 0.1047(3) 0.1749(2) 1.01461(8) 0.020(8) Uiso d 1.00 1
C C43 0.1743(3) 0.1559(2) 0.95820(9) 0.020(8) Uiso d 1.00 1
C C44 0.7134(3) 1.0652(2) 0.15477(9) 0.020(8) Uiso d 1.00 1
C C45 0.7640(2) 1.0929(2) 0.21745(9) 0.020(8) Uiso d 1.00 1
C C46 0.9074(2) 1.2075(2) 0.22599(9) 0.020(8) Uiso d 1.00 1
C C47 0.9453(2) 1.2506(2) 0.16850(10) 0.020(8) Uiso d 1.00 1
C C48 0.8255(3) 1.1627(2) 0.12453(9) 0.020(8) Uiso d 1.00 1
Fe Fe49 0.6746(2) 1.2594(2) 0.18045(7) 0.0190(10) Uiso d 1.00 1
C C50 0.4178(2) 1.2831(2) 0.20360(10) 0.020(8) Uiso d 1.00 1
C C51 0.5560(3) 1.3820(2) 0.23660(10) 0.020(8) Uiso d 1.00 1
C C52 0.6501(3) 1.4614(2) 0.19490(10) 0.020(8) Uiso d 1.00 1
C C53 0.5699(3) 1.4115(2) 0.13620(10) 0.020(8) Uiso d 1.00 1
C C54 0.4264(3) 1.3014(2) 0.14150(10) 0.020(8) Uiso d 1.00 1
H H55 0.240(10) 0.6854(6) 0.610(3) 0.027(8) Uiso d 1.00 1
H H56 0.370(10) 0.8018(3) 0.535(2) 0.027(8) Uiso d 1.00 1
H H57 0.1070(10) 0.0285(2) 0.4742(3) 0.027(8) Uiso d 1.00 1
H H58 0.16(2) -0.088(2) 0.389(2) 0.027(8) Uiso d 1.00 1
H H59 0.270(10) 0.0290(10) 0.313(3) 0.027(8) Uiso d 1.00 1
H H60 0.3280(10) 0.2626(4) 0.3220(2) 0.027(8) Uiso d 1.00 1
H H61 0.7510(10) 1.0106(6) 0.40520(10) 0.027(8) Uiso d 1.00 1
H H62 0.8330(10) 1.1406(5) 0.32920(10) 0.027(8) Uiso d 1.00 1
H H63 0.4210(10) 0.7497(6) 0.28990(10) 0.027(8) Uiso d 1.00 1
H H64 0.5190(10) 0.8719(5) 0.21330(10) 0.027(8) Uiso d 1.00 1
H H65 -0.0310(10) 0.1249(7) 0.8013(4) 0.027(8) Uiso d 1.00 1
H H66 0.0750(10) 0.1801(7) 0.7130(4) 0.027(8) Uiso d 1.00 1
H H67 -0.125(2) 0.5346(7) 0.7263(4) 0.027(8) Uiso d 1.00 1
H H68 -0.2480(10) 0.4730(7) 0.8114(4) 0.027(8) Uiso d 1.00 1
H H69 0.7414(3) 1.5291(2) 0.20380(10) 0.027(8) Uiso d 1.00 1
H H70 0.6032(4) 1.4431(2) 0.10260(10) 0.027(8) Uiso d 1.00 1
H H71 0.3553(3) 1.2530(2) 0.11170(10) 0.027(8) Uiso d 1.00 1
H H72 0.3408(2) 1.2218(2) 0.21880(10) 0.027(8) Uiso d 1.00 1
H H73 0.5791(3) 1.3922(2) 0.27570(10) 0.027(8) Uiso d 1.00 1
H H74 0.8215(4) 1.1677(2) 0.08560(10) 0.027(8) Uiso d 1.00 1
H H75 1.0281(3) 1.3192(2) 0.16150(10) 0.027(8) Uiso d 1.00 1
H H76 0.9627(3) 1.2450(2) 0.26057(9) 0.027(8) Uiso d 1.00 1
H H77 0.6282(3) 0.9996(2) 0.13775(9) 0.027(8) Uiso d 1.00 1
H H78 -0.2052(3) 0.0382(2) 0.86651(9) 0.027(8) Uiso d 1.00 1
H H79 -0.3334(3) 0.0362(2) 0.96340(10) 0.027(8) Uiso d 1.00 1
H H80 -0.3849(3) 0.2721(2) 0.99260(10) 0.027(8) Uiso d 1.00 1
H H81 -0.2888(3) 0.4201(2) 0.91360(10) 0.027(8) Uiso d 1.00 1
H H82 0.2430(3) 0.3029(2) 0.89900(10) 0.027(8) Uiso d 1.00 1
H H83 0.1967(3) 0.0774(2) 0.94150(10) 0.027(8) Uiso d 1.00 1
H H84 0.0767(4) 0.1102(2) 1.03885(9) 0.027(8) Uiso d 1.00 1
H H85 0.0489(4) 0.3558(2) 1.05646(7) 0.027(8) Uiso d 1.00 1
H H86 0.1519(3) 0.4748(2) 0.97000(10) 0.027(8) Uiso d 1.00 1

loop_
_geom_bond_atom_site_label_1
_geom_bond_atom_site_label_2
_geom_bond_site_symmetry_1
_geom_bond_site_symmetry_2
_geom_bond_distance
_geom_bond_publ_flag
Fe38 C33 . . 2.073(3) ?
Fe38 C34 . . 2.073(2) ?
Fe38 C35 . . 2.074(3) ?
Fe38 C36 . . 2.074(3) ?
Fe38 C37 . . 2.074(3) ?
Fe38 C39 . . 2.073(3) ?
Fe38 C40 . . 2.073(3) ?
Fe38 C41 . . 2.073(2) ?
Fe38 C42 . . 2.073(3) ?
Fe38 C43 . . 2.073(3) ?
Fe49 C44 . . 2.073(3) ?
Fe49 C45 . . 2.073(3) ?
Fe49 C46 . . 2.073(2) ?
Fe49 C47 . . 2.072(2) ?
Fe49 C48 . . 2.072(3) ?
Fe49 C50 . . 2.073(2) ?
Fe49 C51 . . 2.074(3) ?
Fe49 C52 . . 2.074(3) ?
Fe49 C53 . . 2.073(3) ?
Fe49 C54 . . 2.074(3) ?
O15 C7 . . 1.226(5) ?
O16 C8 . . 1.227(6) ?
C1 C2 . . 1.398(4) ?
C1 C6 . . 1.398(5) ?
C2 C3 . . 1.399(5) ?
C2 C18 . . 1.441(6) ?
C3 C4 . . 1.399(3) ?
C3 C8 . . 1.481(3) ?
C4 C5 . . 1.400(3) ?
C4 C7 . . 1.480(3) ?
C5 C6 . . 1.400(5) ?
C5 C17 . . 1.439(6) ?
C7 C12 . . 1.483(4) ?
C8 C11 . . 1.482(5) ?
C9 C10 . . 1.399(6) ?
C9 C14 . . 1.399(6) ?
C10 C11 . . 1.399(3) ?
C11 C12 . . 1.398(4) ?
C12 C13 . . 1.401(4) ?
C13 C14 . . 1.399(4) ?
C17 C20 . . 1.213(6) ?
C18 C32 . . 1.212(6) ?
C19 C20 . . 1.439(5) ?
C19 C21 . . 1.401(4) ?
C19 C25 . . 1.401(5) ?
C21 C22 . . 1.400(4) ?
C22 C23 . . 1.401(4) ?
C23 C24 . . 1.399(3) ?
C23 C45 . . 1.461(3) ?
C24 C25 . . 1.400(4) ?
C26 C27 . . 1.402(5) ?
C26 C31 . . 1.400(4) ?
C26 C34 . . 1.461(3) ?
C27 C28 . . 1.400(6) ?
C28 C29 . . 1.401(5) ?
C29 C30 . . 1.400(7) ?
C29 C32 . . 1.440(5) ?
C30 C31 . . 1.400(8) ?
C33 C34 . . 1.460(3) ?
C33 C37 . . 1.460(3) ?
C34 C35 . . 1.460(3) ?
C35 C36 . . 1.461(3) ?
C36 C37 . . 1.460(3) ?
C39 C40 . . 1.460(3) ?
C39 C43 . . 1.461(3) ?
C40 C41 . . 1.461(3) ?
C41 C42 . . 1.460(3) ?
C42 C43 . . 1.460(3) ?
C44 C45 . . 1.460(3) ?
C44 C48 . . 1.461(3) ?
C45 C46 . . 1.461(3) ?
C46 C47 . . 1.461(3) ?
C47 C48 . . 1.459(3) ?
C50 C51 . . 1.460(3) ?
C50 C54 . . 1.461(3) ?
C51 C52 . . 1.461(3) ?
C52 C53 . . 1.460(3) ?
C53 C54 . . 1.459(3) ?
C1 H55 . . 0.94(6) ?
C6 H56 . . 0.94(2) ?
C9 H58 . . 0.93(2) ?
C10 H57 . . 0.930(7) ?
C13 H60 . . 0.930(6) ?
C14 H59 . . 0.92(6) ?
C21 H63 . . 0.933(8) ?
C22 H64 . . 0.931(4) ?
C24 H62 . . 0.931(7) ?
C25 H61 . . 0.929(4) ?
C27 H65 . . 0.931(8) ?
C28 H66 . . 0.931(9) ?
C30 H67 . . 0.931(9) ?
C31 H68 . . 0.929(9) ?
C33 H78 . . 0.899(3) ?
C35 H81 . . 0.900(3) ?
C36 H80 . . 0.900(3) ?
C37 H79 . . 0.898(3) ?
C39 H82 . . 0.899(3) ?
C40 H86 . . 0.900(3) ?
C41 H85 . . 0.900(3) ?
C42 H84 . . 0.900(3) ?
C43 H83 . . 0.901(3) ?
C44 H77 . . 0.899(3) ?
C46 H76 . . 0.900(3) ?
C47 H75 . . 0.899(3) ?
C48 H74 . . 0.900(3) ?
C50 H72 . . 0.899(3) ?
C51 H73 . . 0.899(3) ?
C52 H69 . . 0.900(3) ?
C53 H70 . . 0.900(3) ?
C54 H71 . . 0.903(3) ?

loop_
_geom_angle_atom_site_label_1
_geom_angle_atom_site_label_2
_geom_angle_atom_site_label_3
_geom_angle_site_symmetry_1
_geom_angle_site_symmetry_2
_geom_angle_site_symmetry_3
_geom_angle
_geom_angle_publ_flag
C33 Fe38 C34 . . . 41.23(8) ?
C33 Fe38 C35 . . . 69.46(10) ?
C33 Fe38 C36 . . . 69.47(11) ?
C33 Fe38 C37 . . . 41.24(9) ?
C33 Fe38 C39 . . . 117.41(11) ?
C33 Fe38 C40 . . . 153.25(12) ?
C33 Fe38 C41 . . . 163.13(10) ?
C33 Fe38 C42 . . . 124.33(9) ?
C33 Fe38 C43 . . . 104.89(10) ?
C34 Fe38 C35 . . . 41.23(9) ?
C34 Fe38 C36 . . . 69.46(11) ?
C34 Fe38 C37 . . . 69.46(10) ?
C34 Fe38 C39 . . . 105.47(11) ?
C34 Fe38 C40 . . . 118.96(10) ?
C34 Fe38 C41 . . . 155.00(10) ?
C34 Fe38 C42 . . . 161.81(11) ?
C34 Fe38 C43 . . . 123.71(12) ?
C35 Fe38 C36 . . . 41.24(9) ?
C35 Fe38 C37 . . . 69.46(11) ?
C35 Fe38 C39 . . . 125.17(10) ?
C35 Fe38 C40 . . . 107.60(9) ?
C35 Fe38 C41 . . . 120.59(10) ?
C35 Fe38 C42 . . . 155.62(12) ?
C35 Fe38 C43 . . . 162.25(12) ?
C36 Fe38 C37 . . . 41.22(9) ?
C36 Fe38 C39 . . . 163.94(10) ?
C36 Fe38 C40 . . . 126.79(11) ?
C36 Fe38 C41 . . . 108.29(11) ?
C36 Fe38 C42 . . . 120.02(11) ?
C36 Fe38 C43 . . . 154.17(10) ?
C37 Fe38 C39 . . . 152.81(11) ?
C37 Fe38 C40 . . . 164.58(12) ?
C37 Fe38 C41 . . . 126.22(11) ?
C37 Fe38 C42 . . . 106.62(10) ?
C37 Fe38 C43 . . . 118.07(9) ?
C39 Fe38 C40 . . . 41.23(9) ?
C39 Fe38 C41 . . . 69.50(10) ?
C39 Fe38 C42 . . . 69.48(10) ?
C39 Fe38 C43 . . . 41.25(9) ?
C40 Fe38 C41 . . . 41.25(8) ?
C40 Fe38 C42 . . . 69.47(10) ?
C40 Fe38 C43 . . . 69.47(11) ?
C41 Fe38 C42 . . . 41.24(9) ?
C41 Fe38 C43 . . . 69.48(10) ?
C42 Fe38 C43 . . . 41.23(9) ?
C44 Fe49 C45 . . . 41.24(9) ?
C44 Fe49 C46 . . . 69.50(10) ?
C44 Fe49 C47 . . . 69.49(10) ?
C44 Fe49 C48 . . . 41.27(9) ?
C44 Fe49 C50 . . . 115.79(12) ?
C44 Fe49 C51 . . . 146.85(12) ?
C44 Fe49 C52 . . . 171.69(12) ?
C44 Fe49 C53 . . . 132.96(12) ?
C44 Fe49 C54 . . . 109.80(11) ?
C45 Fe49 C46 . . . 41.25(8) ?
C45 Fe49 C47 . . . 69.51(9) ?
C45 Fe49 C48 . . . 69.50(10) ?
C45 Fe49 C50 . . . 109.94(11) ?
C45 Fe49 C51 . . . 114.47(11) ?
C45 Fe49 C52 . . . 144.88(12) ?
C45 Fe49 C53 . . . 173.74(13) ?
C45 Fe49 C54 . . . 134.40(12) ?
C46 Fe49 C47 . . . 41.28(9) ?
C46 Fe49 C48 . . . 69.51(10) ?
C46 Fe49 C50 . . . 133.14(12) ?
C46 Fe49 C51 . . . 107.60(11) ?
C46 Fe49 C52 . . . 112.16(12) ?
C46 Fe49 C53 . . . 143.60(12) ?
C46 Fe49 C54 . . . 173.91(12) ?
C47 Fe49 C48 . . . 41.23(9) ?
C47 Fe49 C50 . . . 171.87(13) ?
C47 Fe49 C51 . . . 131.07(12) ?
C47 Fe49 C52 . . . 106.06(12) ?
C47 Fe49 C53 . . . 112.03(12) ?
C47 Fe49 C54 . . . 144.61(12) ?
C48 Fe49 C50 . . . 146.74(12) ?
C48 Fe49 C51 . . . 170.84(13) ?
C48 Fe49 C52 . . . 130.91(12) ?
C48 Fe49 C53 . . . 107.39(11) ?
C48 Fe49 C54 . . . 114.22(11) ?
C50 Fe49 C51 . . . 41.23(9) ?
C50 Fe49 C52 . . . 69.47(10) ?
C50 Fe49 C53 . . . 69.45(10) ?
C50 Fe49 C54 . . . 41.27(9) ?
C51 Fe49 C52 . . . 41.25(9) ?
C51 Fe49 C53 . . . 69.46(10) ?
C51 Fe49 C54 . . . 69.49(10) ?
C52 Fe49 C53 . . . 41.22(10) ?
C52 Fe49 C54 . . . 69.46(10) ?
C53 Fe49 C54 . . . 41.20(9) ?
C2 C1 C6 . . . 120.0(3) ?
C1 C2 C3 . . . 120.0(3) ?
C1 C2 C18 . . . 116.1(4) ?
C3 C2 C18 . . . 123.8(3) ?
C2 C3 C4 . . . 120.0(2) ?
C2 C3 C8 . . . 119.1(3) ?
C4 C3 C8 . . . 120.9(3) ?
C3 C4 C5 . . . 120.1(2) ?
C3 C4 C7 . . . 120.96(19) ?
C5 C4 C7 . . . 118.9(2) ?
C4 C5 C6 . . . 119.9(3) ?
C4 C5 C17 . . . 123.7(3) ?
C6 C5 C17 . . . 116.5(3) ?
C1 C6 C5 . . . 120.1(3) ?
O15 C7 C4 . . . 121.0(2) ?
O15 C7 C12 . . . 120.9(3) ?
C4 C7 C12 . . . 118.1(2) ?
O16 C8 C3 . . . 120.9(4) ?
O16 C8 C11 . . . 120.9(3) ?
C3 C8 C11 . . . 118.2(3) ?
C10 C9 C14 . . . 119.9(3) ?
C9 C10 C11 . . . 120.0(3) ?
C8 C11 C10 . . . 118.8(3) ?
C8 C11 C12 . . . 120.8(2) ?
C10 C11 C12 . . . 120.0(3) ?
C7 C12 C11 . . . 121.0(2) ?
C7 C12 C13 . . . 119.1(2) ?
C11 C12 C13 . . . 119.9(3) ?
C12 C13 C14 . . . 120.0(3) ?
C9 C14 C13 . . . 120.1(4) ?
C5 C17 C20 . . . 174.5(4) ?
C2 C18 C32 . . . 170.5(4) ?
C20 C19 C21 . . . 114.9(3) ?
C20 C19 C25 . . . 124.1(3) ?
C21 C19 C25 . . . 120.0(3) ?
C17 C20 C19 . . . 169.9(4) ?
C19 C21 C22 . . . 120.0(4) ?
C21 C22 C23 . . . 119.9(2) ?
C22 C23 C24 . . . 120.0(2) ?
C22 C23 C45 . . . 122.3(2) ?
C24 C23 C45 . . . 117.2(2) ?
C23 C24 C25 . . . 120.0(3) ?
C19 C25 C24 . . . 119.9(2) ?
C27 C26 C31 . . . 120.0(3) ?
C27 C26 C34 . . . 116.2(2) ?
C31 C26 C34 . . . 123.9(3) ?
C26 C27 C28 . . . 120.0(4) ?
C27 C28 C29 . . . 119.9(4) ?
C28 C29 C30 . . . 120.1(4) ?
C28 C29 C32 . . . 122.1(4) ?
C30 C29 C32 . . . 117.8(4) ?
C29 C30 C31 . . . 120.0(4) ?
C26 C31 C30 . . . 120.0(4) ?
C18 C32 C29 . . . 177.7(5) ?
Fe38 C33 C34 . . . 69.40(11) ?
Fe38 C33 C37 . . . 69.41(12) ?
C34 C33 C37 . . . 108.00(17) ?
Fe38 C34 C26 . . . 126.80(17) ?
Fe38 C34 C33 . . . 69.37(11) ?
Fe38 C34 C35 . . . 69.40(12) ?
C26 C34 C33 . . . 126.02(17) ?
C26 C34 C35 . . . 125.97(18) ?
C33 C34 C35 . . . 108.02(16) ?
Fe38 C35 C34 . . . 69.38(12) ?
Fe38 C35 C36 . . . 69.38(13) ?
C34 C35 C36 . . . 108.00(17) ?
Fe38 C36 C35 . . . 69.38(13) ?
Fe38 C36 C37 . . . 69.39(13) ?
C35 C36 C37 . . . 107.99(18) ?
Fe38 C37 C33 . . . 69.35(13) ?
Fe38 C37 C36 . . . 69.39(13) ?
C33 C37 C36 . . . 108.00(17) ?
Fe38 C39 C40 . . . 69.38(13) ?
Fe38 C39 C43 . . . 69.38(13) ?
C40 C39 C43 . . . 107.98(17) ?
Fe38 C40 C39 . . . 69.39(13) ?
Fe38 C40 C41 . . . 69.39(12) ?
C39 C40 C41 . . . 108.04(17) ?
Fe38 C41 C40 . . . 69.36(11) ?
Fe38 C41 C42 . . . 69.37(11) ?
C40 C41 C42 . . . 107.95(16) ?
Fe38 C42 C41 . . . 69.39(11) ?
Fe38 C42 C43 . . . 69.40(13) ?
C41 C42 C43 . . . 108.04(16) ?
Fe38 C43 C39 . . . 69.37(13) ?
Fe38 C43 C42 . . . 69.37(13) ?
C39 C43 C42 . . . 108.00(17) ?
Fe49 C44 C45 . . . 69.39(12) ?
Fe49 C44 C48 . . . 69.36(12) ?
C45 C44 C48 . . . 108.00(17) ?
Fe49 C45 C23 . . . 126.82(14) ?
Fe49 C45 C44 . . . 69.37(12) ?
Fe49 C45 C46 . . . 69.38(12) ?
C23 C45 C44 . . . 126.03(18) ?
C23 C45 C46 . . . 125.94(18) ?
C44 C45 C46 . . . 108.02(17) ?
Fe49 C46 C45 . . . 69.36(11) ?
Fe49 C46 C47 . . . 69.33(11) ?
C45 C46 C47 . . . 107.94(17) ?
Fe49 C47 C46 . . . 69.39(10) ?
Fe49 C47 C48 . . . 69.39(12) ?
C46 C47 C48 . . . 108.02(16) ?
Fe49 C48 C44 . . . 69.38(13) ?
Fe49 C48 C47 . . . 69.38(11) ?
C44 C48 C47 . . . 108.01(17) ?
Fe49 C50 C51 . . . 69.42(12) ?
Fe49 C50 C54 . . . 69.39(12) ?
C51 C50 C54 . . . 108.01(17) ?
Fe49 C51 C50 . . . 69.35(12) ?
Fe49 C51 C52 . . . 69.38(13) ?
C50 C51 C52 . . . 107.97(19) ?
Fe49 C52 C51 . . . 69.37(12) ?
Fe49 C52 C53 . . . 69.37(12) ?
C51 C52 C53 . . . 107.97(18) ?
Fe49 C53 C52 . . . 69.41(13) ?
Fe49 C53 C54 . . . 69.41(13) ?
C52 C53 C54 . . . 108.10(19) ?
Fe49 C54 C50 . . . 69.34(12) ?
Fe49 C54 C53 . . . 69.39(13) ?
C50 C54 C53 . . . 107.95(18) ?
C2 C1 H55 . . . 120(2) ?
C6 C1 H55 . . . 121(2) ?
C1 C6 H56 . . . 121(3) ?
C5 C6 H56 . . . 119(3) ?
C10 C9 H58 . . . 120(4) ?
C14 C9 H58 . . . 120(5) ?
C9 C10 H57 . . . 119.9(4) ?
C11 C10 H57 . . . 120.1(5) ?
C12 C13 H60 . . . 120.0(4) ?
C14 C13 H60 . . . 120.1(4) ?
C9 C14 H59 . . . 120(2) ?
C13 C14 H59 . . . 120(2) ?
C19 C21 H63 . . . 120.0(3) ?
C22 C21 H63 . . . 120.0(3) ?
C21 C22 H64 . . . 120.1(5) ?
C23 C22 H64 . . . 119.9(4) ?
C23 C24 H62 . . . 120.0(3) ?
C25 C24 H62 . . . 120.0(3) ?
C19 C25 H61 . . . 120.0(5) ?
C24 C25 H61 . . . 120.0(5) ?
C26 C27 H65 . . . 120.1(7) ?
C28 C27 H65 . . . 119.9(7) ?
C27 C28 H66 . . . 119.9(7) ?
C29 C28 H66 . . . 120.2(7) ?
C29 C30 H67 . . . 119.9(9) ?
C31 C30 H67 . . . 120.1(9) ?
C26 C31 H68 . . . 120.0(6) ?
C30 C31 H68 . . . 120.0(6) ?
Fe38 C33 H78 . . . 126.8(2) ?
C34 C33 H78 . . . 126.0(2) ?
C37 C33 H78 . . . 126.0(2) ?
Fe38 C35 H81 . . . 126.9(2) ?
C34 C35 H81 . . . 126.0(3) ?
C36 C35 H81 . . . 126.0(3) ?
Fe38 C36 H80 . . . 126.8(2) ?
C35 C36 H80 . . . 126.1(2) ?
C37 C36 H80 . . . 125.9(2) ?
Fe38 C37 H79 . . . 126.8(2) ?
C33 C37 H79 . . . 126.0(2) ?
C36 C37 H79 . . . 126.0(3) ?
Fe38 C39 H82 . . . 126.8(2) ?
C40 C39 H82 . . . 126.0(2) ?
C43 C39 H82 . . . 126.1(2) ?
Fe38 C40 H86 . . . 126.8(2) ?
C39 C40 H86 . . . 126.0(2) ?
C41 C40 H86 . . . 126.0(2) ?
Fe38 C41 H85 . . . 126.8(3) ?
C40 C41 H85 . . . 126.0(2) ?
C42 C41 H85 . . . 126.0(2) ?
Fe38 C42 H84 . . . 126.8(3) ?
C41 C42 H84 . . . 126.0(2) ?
C43 C42 H84 . . . 126.0(2) ?
Fe38 C43 H83 . . . 126.8(2) ?
C39 C43 H83 . . . 125.9(3) ?
C42 C43 H83 . . . 126.1(2) ?
Fe49 C44 H77 . . . 126.8(2) ?
C45 C44 H77 . . . 126.0(2) ?
C48 C44 H77 . . . 126.0(2) ?
Fe49 C46 H76 . . . 126.8(2) ?
C45 C46 H76 . . . 126.0(2) ?
C47 C46 H76 . . . 126.0(2) ?
Fe49 C47 H75 . . . 126.9(2) ?
C46 C47 H75 . . . 125.9(3) ?
C48 C47 H75 . . . 126.1(3) ?
Fe49 C48 H74 . . . 126.9(3) ?
C44 C48 H74 . . . 126.0(3) ?
C47 C48 H74 . . . 126.0(3) ?
Fe49 C50 H72 . . . 126.9(2) ?
C51 C50 H72 . . . 126.0(3) ?
C54 C50 H72 . . . 126.0(3) ?
Fe49 C51 H73 . . . 126.8(2) ?
C50 C51 H73 . . . 126.0(3) ?
C52 C51 H73 . . . 126.0(3) ?
Fe49 C52 H69 . . . 126.8(2) ?
C51 C52 H69 . . . 126.1(3) ?
C53 C52 H69 . . . 126.0(3) ?
Fe49 C53 H70 . . . 126.8(3) ?
C52 C53 H70 . . . 126.0(3) ?
C54 C53 H70 . . . 126.0(3) ?
Fe49 C54 H71 . . . 126.8(2) ?
C50 C54 H71 . . . 125.9(3) ?
C53 C54 H71 . . . 126.1(3) ?

