data_III
#data_K2FeSi5O12long
 
_pd_block_id    K2FeSi5O12long
#==============================================================================             
# 9. INSTRUMENT CHARACTERIZATION                                                            
                                                                                            
_exptl_special_details                                                                      
; ?                                                                                         
;                                                                                           
                                                                                            
# if regions of the data are excluded, the reason(s) are supplied here:                     
_pd_proc_info_excluded_regions                                                              
; ?                                                                                         
;                                                                                           
                                                                                            
# The following item is used to identify the equipment used to record                       
# the powder pattern when the diffractogram was measured at a laboratory                    
# other than the authors' home institution, e.g. when neutron or synchrotron                
# radiation is used.                                                                        
                                                                                            
_pd_instr_location 
; 'PANalytical X'Pert Pro MPD, MERI, Sheffield Hallam University'
;                
_pd_calibration_special_details           # description of the method used 
        # to calibrate the instrument 
; 'Calibration with external NIST 640e silicon standard'
;

_diffrn_ambient_temperature          293
_diffrn_source              'X-ray tube' # Put here: 'rotating-anode X-ray
# tube or similar' 
_diffrn_source_target       Cu # Put here the chemical symbol of the anode
_diffrn_source_type            ?    
_diffrn_measurement_device_type      'PANalytical X'Pert Pro MPD diffractometer'
_diffrn_detector    'PANalytical X'Celerator'
_diffrn_detector_type          ?  # make or model of detector
  
_pd_meas_scan_method           step  # options are 'step', 'cont',
                 # 'tof', 'fixed' or
                 # 'disp' (= dispersive)
_pd_meas_special_details 
;  ?  
;                                                                                          
                                                                                            
# The following two items identify the program(s) used (if appropriate).                    
_computing_data_collection        "X'Pert Data Collector (PANalytical, 2006)"                                                         
_computing_data_reduction         ?                                                         
                                                                                            
# Describe any processing performed on the data, prior to refinement.                       
# For example: a manual Lp correction or a precomputed absorption correction                
_pd_proc_info_data_reduction      ?                                                         
                                                                                            
# The following item is used for angular dispersive measurements only.                      
                                                                                            
_diffrn_radiation_monochromator   'graphite'                                                         
                                                                                            
# The following items are used to define the size of the instrument.                        
# Not all distances are appropriate for all instrument types.                               
                                                                                            
_pd_instr_dist_src/mono           ?                                                         
_pd_instr_dist_mono/spec          ?                                                         
_pd_instr_dist_src/spec           ?                                                         
_pd_instr_dist_spec/anal          ?                                                         
_pd_instr_dist_anal/detc          ?                                                         
_pd_instr_dist_spec/detc          ?                                                         
                                                                                            
# 10. Specimen size and mounting information                                                
                                                                                            
# The next three fields give the specimen dimensions in mm.  The equatorial 
# plane contains the incident and diffracted beam.

_pd_spec_size_axial               15       # perpendicular to 
                                          # equatorial plane

_pd_spec_size_equat               15       # parallel to 
                                          # scattering vector 
                                          # in transmission

_pd_spec_size_thick               0.1       # parallel to 
                                          # scattering vector 
                                          # in reflection

# The next five fields are character fields that describe the specimen.

_pd_spec_mounting                         # This field should be
                                          # used to give details of the 
                                          # container.
                                  'flat plate'

_pd_spec_mount_mode               reflection       # options are 'reflection'
                                          # or 'transmission'
_pd_spec_shape                    irregular       # options are 'cylinder' 
                                          # 'flat_sheet' or 'irregular'
                                                                                            
     
_diffrn_radiation_probe                x-rays 
_diffrn_radiation_wavelength            1.5418
     
#  The following profile R-factors are NOT CORRECTED for background
#  The sum is extended to all non-excluded points.
#  These are the current CIF standard
 
_pd_proc_ls_prof_R_factor                2.7597
_pd_proc_ls_prof_wR_factor               4.0512
_pd_proc_ls_prof_wR_expected             2.9918
 
#  The following profile R-factors are CORRECTED for background
#  The sum is extended to all non-excluded points.
#  These items are not in the current CIF standard, but are defined above
 
_pd_proc_ls_prof_cR_factor               29.0658
_pd_proc_ls_prof_cwR_factor              21.0014
_pd_proc_ls_prof_cwR_expected            15.5097
 
#  The following items are not in the CIF standard, but are defined above
 
_pd_proc_ls_prof_chi2                 1.8335
_pd_proc_ls_prof_echi2                1.8490
  
_pd_proc_ls_background_function   
;   FullProf Background function number  
;                                                                              
                                                                               
_exptl_absorpt_process_details                                                 
;   FullProf Absorption/surface roughness correction    
 No correction is applied ?.                                                   
;                                                                              
                                                                               
_pd_proc_ls_profile_function                                                   
'T-C-H Pseudo-Voigt'                                                                              
_pd_proc_ls_peak_cutoff 0.00500                                                
_pd_calc_method  "   Rietveld Refinement" 
                                                                               
#---- raw/calc data loop -----   
_pd_meas_2theta_range_min       5.008356
_pd_meas_2theta_range_max      74.995148
_pd_meas_2theta_range_inc       0.016711
_pd_proc_2theta_range_min       4.944520
_pd_proc_2theta_range_max      74.931313
_pd_proc_2theta_range_inc       0.016711
 
loop_
_pd_proc_point_id
_pd_proc_2theta_corrected   
_pd_proc_intensity_total
_pd_calc_intensity_total
_pd_proc_intensity_bkg_calc
 
     1     4.9445    6123(78)          6123.0020         6123.0020                                                                  
     2     4.9612    6181(79)          6084.6812         6084.6812                                                                  
     3     4.9779    6121(78)          6062.4263         6062.4263                                                                  
     4     4.9947    6085(78)          6040.1714         6040.1714                                                                  
     5     5.0114    5897(77)          6017.9165         6017.9165                                                                  
     6     5.0281    6012(78)          5995.6616         5995.6616                                                                  
     7     5.0448    5969(77)          5973.4067         5973.4067                                                                  
     8     5.0615    5943(77)          5951.1509         5951.1509                                                                  
     9     5.0782    5865(77)          5928.8960         5928.8960                                                                  
    10     5.0949    5708(76)          5906.6411         5906.6411                                                                  
    11     5.1116    5973(77)          5884.3862         5884.3862                                                                  
    12     5.1283    5975(77)          5862.1313         5862.1313                                                                  
    13     5.1451    5801(76)          5839.8765         5839.8765                                                                  
    14     5.1618    5862(77)          5817.6216         5817.6216                                                                  
    15     5.1785    5860(77)          5795.3667         5795.3667                                                                  
    16     5.1952    5802(76)          5773.1113         5773.1113                                                                  
    17     5.2119    5829(76)          5750.8564         5750.8564                                                                  
    18     5.2286    5630(75)          5728.6016         5728.6016                                                                  
    19     5.2453    5743(76)          5706.3467         5706.3467                                                                  
    20     5.2620    5689(75)          5684.0918         5684.0918                                                                  
    21     5.2787    5629(75)          5661.8369         5661.8369                                                                  
    22     5.2955    5603(75)          5639.5820         5639.5820                                                                  
    23     5.3122    5598(75)          5617.3262         5617.3262                                                                  
    24     5.3289    5535(74)          5595.0713         5595.0713                                                                  
    25     5.3456    5514(74)          5572.8164         5572.8164                                                                  
    26     5.3623    5567(75)          5550.5615         5550.5615                                                                  
    27     5.3790    5562(75)          5528.3066         5528.3066                                                                  
    28     5.3957    5475(74)          5506.0518         5506.0518                                                                  
    29     5.4124    5444(74)          5483.7969         5483.7969                                                                  
    30     5.4291    5558(75)          5461.5420         5461.5420                                                                  
    31     5.4459    5490(74)          5439.2871         5439.2871                                                                  
    32     5.4626    5337(73)          5417.0322         5417.0322                                                                  
    33     5.4793    5363(73)          5394.7773         5394.7773                                                                  
    34     5.4960    5364(73)          5372.5220         5372.5220                                                                  
    35     5.5127    5363(73)          5350.2671         5350.2671                                                                  
    36     5.5294    5387(73)          5328.0117         5328.0117                                                                  
    37     5.5461    5258(73)          5305.7568         5305.7568                                                                  
    38     5.5628    5261(73)          5283.5020         5283.5020                                                                  
    39     5.5795    5195(72)          5261.2471         5261.2471                                                                  
    40     5.5963    5263(73)          5238.9922         5238.9922                                                                  
    41     5.6130    5321(73)          5216.7368         5216.7368                                                                  
    42     5.6297    5216(72)          5199.0288         5199.0288                                                                  
    43     5.6464    5267(73)          5181.8335         5181.8335                                                                  
    44     5.6631    5050(71)          5164.6377         5164.6377                                                                  
    45     5.6798    5263(73)          5147.4424         5147.4424                                                                  
    46     5.6965    5070(71)          5130.2466         5130.2466                                                                  
    47     5.7132    5014(71)          5113.0513         5113.0513                                                                  
    48     5.7299    5084(71)          5095.8564         5095.8560                                                                  
    49     5.7467    5347(73)          5078.6606         5078.6602                                                                  
    50     5.7634    5090(71)          5061.4653         5061.4648                                                                  
    51     5.7801    5053(71)          5044.2700         5044.2695                                                                  
    52     5.7968    4990(71)          5027.0737         5027.0732                                                                  
    53     5.8135    5051(71)          5009.8784         5009.8779                                                                  
    54     5.8302    4911(70)          4992.6831         4992.6826                                                                  
    55     5.8469    4969(70)          4975.4873         4975.4868                                                                  
    56     5.8636    4969(70)          4958.2920         4958.2915                                                                  
    57     5.8804    4871(70)          4941.0962         4941.0957                                                                  
    58     5.8971    4909(70)          4923.9009         4923.9004                                                                  
    59     5.9138    4883(70)          4906.7056         4906.7051                                                                  
    60     5.9305    4962(70)          4889.5098         4889.5093                                                                  
    61     5.9472    4781(69)          4872.3145         4872.3140                                                                  
    62     5.9639    4734(69)          4855.1191         4855.1187                                                                  
    63     5.9806    4969(70)          4837.9233         4837.9229                                                                  
    64     5.9973    4771(69)          4820.7275         4820.7271                                                                  
    65     6.0140    4944(70)          4803.5317         4803.5312                                                                  
    66     6.0308    4804(69)          4786.3364         4786.3359                                                                  
    67     6.0475    4743(69)          4769.1411         4769.1406                                                                  
    68     6.0642    4750(69)          4751.9453         4751.9448                                                                  
    69     6.0809    4593(68)          4734.7500         4734.7495                                                                  
    70     6.0976    4700(69)          4717.5547         4717.5542                                                                  
    71     6.1143    4714(69)          4700.3589         4700.3584                                                                  
    72     6.1310    4621(68)          4683.1641         4683.1631                                                                  
    73     6.1477    4744(69)          4665.9688         4665.9678                                                                  
    74     6.1644    4650(68)          4648.7729         4648.7720                                                                  
    75     6.1812    4466(67)          4631.5776         4631.5767                                                                  
    76     6.1979    4688(68)          4614.3818         4614.3809                                                                  
    77     6.2146    4630(68)          4597.1865         4597.1855                                                                  
    78     6.2313    4581(68)          4579.9912         4579.9902                                                                  
    79     6.2480    4564(68)          4562.7954         4562.7944                                                                  
    80     6.2647    4586(68)          4545.6006         4545.5991                                                                  
    81     6.2814    4578(68)          4528.4053         4528.4038                                                                  
    82     6.2981    4614(68)          4511.2090         4511.2075                                                                  
    83     6.3148    4583(68)          4494.0137         4494.0122                                                                  
    84     6.3316    4458(67)          4476.8184         4476.8164                                                                  
    85     6.3483    4483(67)          4459.6230         4459.6211                                                                  
    86     6.3650    4377(66)          4442.4282         4442.4258                                                                  
    87     6.3817    4318(66)          4428.7437         4428.7412                                                                  
    88     6.3984    4358(66)          4416.3096         4416.3066                                                                  
    89     6.4151    4405(66)          4403.8750         4403.8716                                                                  
    90     6.4318    4336(66)          4391.4419         4391.4370                                                                  
    91     6.4485    4462(67)          4379.0107         4379.0020                                                                  
    92     6.4652    4425(67)          4366.5845         4366.5669                                                                  
    93     6.4820    4280(65)          4354.1704         4354.1323                                                                  
    94     6.4987    4385(66)          4341.7808         4341.6973                                                                  
    95     6.5154    4265(65)          4329.4395         4329.2627                                                                  
    96     6.5321    4310(66)          4317.1802         4316.8276                                                                  
    97     6.5488    4334(66)          4305.0479         4304.3931                                                                  
    98     6.5655    4228(65)          4293.0894         4291.9585                                                                  
    99     6.5822    4320(66)          4281.3350         4279.5234                                                                  
   100     6.5989    4258(65)          4269.7788         4267.0889                                                                  
   101     6.6156    4217(65)          4258.3540         4254.6538                                                                  
   102     6.6324    4336(66)          4246.9346         4242.2192                                                                  
   103     6.6491    4217(65)          4235.3491         4229.7842                                                                  
   104     6.6658    4253(65)          4223.4302         4217.3496                                                                  
   105     6.6825    4325(66)          4211.0664         4204.9150                                                                  
   106     6.6992    4249(65)          4198.2412         4192.4800                                                                  
   107     6.7159    4220(65)          4185.0420         4180.0454                                                                  
   108     6.7326    4280(65)          4171.6240         4167.6104                                                                  
   109     6.7493    4107(64)          4158.1626         4155.1758                                                                  
   110     6.7660    4055(64)          4144.8003         4142.7407                                                                  
   111     6.7828    4080(64)          4131.6226         4130.3057                                                                  
   112     6.7995    4026(63)          4118.6519         4117.8711                                                                  
   113     6.8162    4198(65)          4105.8662         4105.4360                                                                  
   114     6.8329    4159(64)          4093.2224         4093.0015                                                                  
   115     6.8496    4036(64)          4080.6733         4080.5667                                                                  
   116     6.8663    3986(63)          4068.1809         4068.1318                                                                  
   117     6.8830    4039(64)          4055.7192         4055.6970                                                                  
   118     6.8997    4046(64)          4043.2729         4043.2622                                                                  
   119     6.9164    4099(64)          4030.8333         4030.8274                                                                  
   120     6.9332    3967(63)          4018.3965         4018.3926                                                                  
   121     6.9499    4109(64)          4005.9604         4005.9575                                                                  
   122     6.9666    3963(63)          3993.5254         3993.5227                                                                  
   123     6.9833    3990(63)          3981.0901         3981.0879                                                                  
   124     7.0000    3981(63)          3968.6553         3968.6533                                                                  
   125     7.0167    3935(63)          3956.2205         3956.2185                                                                  
   126     7.0334    3927(63)          3943.7854         3943.7837                                                                  
   127     7.0501    3949(63)          3931.3503         3931.3489                                                                  
   128     7.0669    3915(63)          3918.9155         3918.9141                                                                  
   129     7.0836    3839(62)          3906.4805         3906.4792                                                                  
   130     7.1003    3944(63)          3894.0457         3894.0444                                                                  
   131     7.1170    3890(62)          3881.6108         3881.6096                                                                  
   132     7.1337    3981(63)          3869.1758         3869.1748                                                                  
   133     7.1504    3893(62)          3856.7412         3856.7402                                                                  
   134     7.1671    3819(62)          3844.3064         3844.3054                                                                  
   135     7.1838    3761(61)          3831.8840         3831.8831                                                                  
   136     7.2005    3804(62)          3822.6460         3822.6453                                                                  
   137     7.2173    3781(61)          3813.4082         3813.4075                                                                  
   138     7.2340    3845(62)          3804.1704         3804.1697                                                                  
   139     7.2507    3897(62)          3794.9326         3794.9319                                                                  
   140     7.2674    3793(62)          3785.6946         3785.6938                                                                  
   141     7.2841    3681(61)          3776.4563         3776.4558                                                                  
   142     7.3008    3946(63)          3767.2185         3767.2180                                                                  
   143     7.3175    3772(61)          3757.9807         3757.9802                                                                  
   144     7.3342    3747(61)          3748.7429         3748.7424                                                                  
   145     7.3509    3680(61)          3739.5051         3739.5046                                                                  
   146     7.3677    3743(61)          3730.2673         3730.2668                                                                  
   147     7.3844    3688(61)          3721.0293         3721.0288                                                                  
   148     7.4011    3832(62)          3711.7915         3711.7910                                                                  
   149     7.4178    3632(60)          3702.5537         3702.5532                                                                  
   150     7.4345    3680(61)          3693.3159         3693.3154                                                                  
   151     7.4512    3644(60)          3684.0779         3684.0774                                                                  
   152     7.4679    3812(62)          3674.8398         3674.8396                                                                  
   153     7.4846    3649(60)          3665.6021         3665.6018                                                                  
   154     7.5013    3612(60)          3656.3643         3656.3640                                                                  
   155     7.5181    3451(59)          3647.1265         3647.1262                                                                  
   156     7.5348    3585(60)          3637.8887         3637.8884                                                                  
   157     7.5515    3703(61)          3628.6509         3628.6506                                                                  
   158     7.5682    3536(59)          3619.4131         3619.4128                                                                  
   159     7.5849    3665(61)          3610.1753         3610.1750                                                                  
   160     7.6016    3582(60)          3600.9373         3600.9370                                                                  
   161     7.6183    3567(60)          3591.6995         3591.6992                                                                  
   162     7.6350    3640(60)          3582.4617         3582.4614                                                                  
   163     7.6517    3544(60)          3573.2239         3573.2236                                                                  
   164     7.6685    3570(60)          3563.9861         3563.9858                                                                  
   165     7.6852    3603(60)          3554.7483         3554.7480                                                                  
   166     7.7019    3555(60)          3545.5105         3545.5103                                                                  
   167     7.7186    3471(59)          3536.2727         3536.2725                                                                  
   168     7.7353    3549(60)          3527.0349         3527.0347                                                                  
   169     7.7520    3501(59)          3517.7969         3517.7966                                                                  
   170     7.7687    3500(59)          3508.5588         3508.5586                                                                  
   171     7.7854    3419(58)          3499.3210         3499.3208                                                                  
   172     7.8021    3435(59)          3490.0830         3490.0830                                                                  
   173     7.8189    3479(59)          3480.8452         3480.8452                                                                  
   174     7.8356    3421(58)          3471.6074         3471.6074                                                                  
   175     7.8523    3393(58)          3462.3696         3462.3696                                                                  
   176     7.8690    3424(59)          3453.1316         3453.1316                                                                  
   177     7.8857    3486(59)          3443.8938         3443.8938                                                                  
   178     7.9024    3450(59)          3434.6560         3434.6560                                                                  
   179     7.9191    3365(58)          3425.4180         3425.4180                                                                  
   180     7.9358    3521(59)          3416.1802         3416.1802                                                                  
   181     7.9525    3480(59)          3406.9424         3406.9424                                                                  
   182     7.9693    3352(58)          3397.7046         3397.7046                                                                  
   183     7.9860    3339(58)          3388.4668         3388.4668                                                                  
   184     8.0027    3468(59)          3379.2290         3379.2290                                                                  
   185     8.0194    3438(59)          3369.9912         3369.9912                                                                  
   186     8.0361    3415(58)          3360.7534         3360.7534                                                                  
   187     8.0528    3365(58)          3351.5156         3351.5156                                                                  
   188     8.0695    3310(58)          3342.2778         3342.2778                                                                  
   189     8.0862    3308(58)          3333.0400         3333.0400                                                                  
   190     8.1030    3387(58)          3323.8022         3323.8022                                                                  
   191     8.1197    3370(58)          3314.5642         3314.5642                                                                  
   192     8.1364    3346(58)          3305.3264         3305.3264                                                                  
   193     8.1531    3312(58)          3296.0886         3296.0886                                                                  
   194     8.1698    3258(57)          3288.7412         3288.7412                                                                  
   195     8.1865    3352(58)          3281.9851         3281.9851                                                                  
   196     8.2032    3320(58)          3275.2312         3275.2288                                                                  
   197     8.2199    3322(58)          3268.4763         3268.4727                                                                  
   198     8.2366    3295(57)          3261.7197         3261.7158                                                                  
   199     8.2534    3281(57)          3254.9639         3254.9600                                                                  
   200     8.2701    3278(57)          3248.2075         3248.2034                                                                  
   201     8.2868    3273(57)          3241.4519         3241.4475                                                                  
   202     8.3035    3215(57)          3234.6953         3234.6909                                                                  
   203     8.3202    3154(56)          3227.9414         3227.9351                                                                  
   204     8.3369    3304(57)          3221.1851         3221.1785                                                                  
   205     8.3536    3230(57)          3214.4299         3214.4224                                                                  
   206     8.3703    3125(56)          3207.6738         3207.6660                                                                  
   207     8.3870    3252(57)          3200.9177         3200.9097                                                                  
   208     8.4038    3222(57)          3194.1619         3194.1536                                                                  
   209     8.4205    3081(56)          3187.4060         3187.3972                                                                  
   210     8.4372    3224(57)          3180.6501         3180.6411                                                                  
   211     8.4539    3191(56)          3173.8940         3173.8848                                                                  
   212     8.4706    3136(56)          3167.1384         3167.1287                                                                  
   213     8.4873    3156(56)          3160.3823         3160.3723                                                                  
   214     8.5040    3165(56)          3153.6265         3153.6160                                                                  
   215     8.5207    3151(56)          3146.8708         3146.8599                                                                  
   216     8.5374    3234(57)          3140.1150         3140.1035                                                                  
   217     8.5542    3199(57)          3133.3594         3133.3474                                                                  
   218     8.5709    3169(56)          3126.6035         3126.5911                                                                  
   219     8.5876    3004(55)          3119.8479         3119.8350                                                                  
   220     8.6043    3127(56)          3113.0923         3113.0786                                                                  
   221     8.6210    3109(56)          3106.3364         3106.3223                                                                  
   222     8.6377    3042(55)          3099.5811         3099.5662                                                                  
   223     8.6544    3011(55)          3092.8254         3092.8098                                                                  
   224     8.6711    2973(55)          3086.0701         3086.0537                                                                  
   225     8.6878    3023(55)          3079.3145         3079.2971                                                                  
   226     8.7046    2998(55)          3072.5596         3072.5413                                                                  
   227     8.7213    3045(55)          3065.8040         3065.7847                                                                  
   228     8.7380    3045(55)          3059.0491         3059.0288                                                                  
   229     8.7547    2950(54)          3052.2935         3052.2720                                                                  
   230     8.7714    3111(56)          3045.5388         3045.5161                                                                  
   231     8.7881    2994(55)          3038.7837         3038.7595                                                                  
   232     8.8048    2909(54)          3032.0293         3032.0037                                                                  
   233     8.8215    2987(55)          3025.2744         3025.2471                                                                  
   234     8.8382    3070(55)          3018.5200         3018.4907                                                                  
   235     8.8550    3013(55)          3011.7659         3011.7346                                                                  
   236     8.8717    3073(55)          3005.0117         3004.9783                                                                  
   237     8.8884    2952(54)          2998.2583         2998.2222                                                                  
   238     8.9051    3049(55)          2991.5046         2991.4658                                                                  
   239     8.9218    2915(54)          2984.7517         2984.7097                                                                  
   240     8.9385    2991(55)          2977.9990         2977.9534                                                                  
   241     8.9552    2871(54)          2971.2471         2971.1973                                                                  
   242     8.9719    3047(55)          2964.4954         2964.4409                                                                  
   243     8.9886    2829(53)          2957.7444         2957.6846                                                                  
   244     9.0054    2956(54)          2950.9949         2950.9285                                                                  
   245     9.0221    2981(55)          2944.2468         2944.1721                                                                  
   246     9.0388    2953(54)          2937.5037         2937.4160                                                                  
   247     9.0555    3069(55)          2930.7715         2930.6597                                                                  
   248     9.0722    2837(53)          2924.0693         2923.9036                                                                  
   249     9.0889    2962(54)          2917.4404         2917.1472                                                                  
   250     9.1056    2978(55)          2910.9819         2910.3906                                                                  
   251     9.1223    2928(54)          2904.8857         2903.6348                                                                  
   252     9.1390    2830(53)          2899.4846         2896.8782                                                                  
   253     9.1558    2884(54)          2895.2917         2890.1223                                                                  
   254     9.1725    2980(55)          2892.9736         2883.3657                                                                  
   255     9.1892    2944(54)          2893.2219         2876.6099                                                                  
   256     9.2059    2916(54)          2896.4958         2869.8530                                                                  
   257     9.2226    2922(54)          2902.6873         2863.0972                                                                  
   258     9.2393    2887(54)          2910.8589         2856.3406                                                                  
   259     9.2560    2978(55)          2919.2334         2849.5847                                                                  
   260     9.2727    2907(54)          2925.5737         2842.8281                                                                  
   261     9.2894    3038(55)          2927.8762         2836.0723                                                                  
   262     9.3062    2865(54)          2925.1343         2829.3157                                                                  
   263     9.3229    2947(54)          2917.7485         2822.5598                                                                  
   264     9.3396    2775(53)          2907.3008         2815.8032                                                                  
   265     9.3563    2923(54)          2895.7786         2809.0469                                                                  
   266     9.3730    2987(55)          2884.6453         2802.2908                                                                  
   267     9.3897    2863(54)          2874.2563         2795.5344                                                                  
   268     9.4064    2861(53)          2863.8906         2788.7783                                                                  
   269     9.4231    2837(53)          2852.3318         2782.0220                                                                  
   270     9.4399    2853(53)          2838.6484         2775.2659                                                                  
   271     9.4566    2832(53)          2822.7275         2768.5095                                                                  
   272     9.4733    2748(52)          2805.3232         2761.7534                                                                  
   273     9.4900    2741(52)          2787.6890         2754.9971                                                                  
   274     9.5067    2775(53)          2771.0667         2748.2407                                                                  
   275     9.5234    2791(53)          2756.2927         2741.4846                                                                  
   276     9.5401    2848(53)          2743.6550         2734.7283                                                                  
   277     9.5568    2713(52)          2732.9829         2727.9722                                                                  
   278     9.5735    2746(52)          2724.4905         2721.8569                                                                  
   279     9.5903    2670(52)          2718.1472         2716.8352                                                                  
   280     9.6070    2718(52)          2712.4502         2711.8140                                                                  
   281     9.6237    2742(52)          2707.1079         2706.7920                                                                  
   282     9.6404    2684(52)          2701.9441         2701.7708                                                                  
   283     9.6571    2767(53)          2696.8606         2696.7488                                                                  
   284     9.6738    2739(52)          2691.8120         2691.7275                                                                  
   285     9.6905    2632(51)          2686.7764         2686.7056                                                                  
   286     9.7072    2643(51)          2681.7466         2681.6843                                                                  
   287     9.7239    2684(52)          2676.7188         2676.6626                                                                  
   288     9.7407    2621(51)          2671.6924         2671.6411                                                                  
   289     9.7574    2686(52)          2666.6663         2666.6194                                                                  
   290     9.7741    2722(52)          2661.6411         2661.5979                                                                  
   291     9.7908    2680(52)          2656.6160         2656.5762                                                                  
   292     9.8075    2635(51)          2651.5918         2651.5549                                                                  
   293     9.8242    2659(52)          2646.5671         2646.5330                                                                  
   294     9.8409    2581(51)          2641.5432         2641.5115                                                                  
   295     9.8576    2678(52)          2636.5195         2636.4897                                                                  
   296     9.8743    2568(51)          2631.4961         2631.4683                                                                  
   297     9.8911    2596(51)          2626.4727         2626.4465                                                                  
   298     9.9078    2696(52)          2621.4495         2621.4250                                                                  
   299     9.9245    2625(51)          2616.4268         2616.4036                                                                  
   300     9.9412    2633(51)          2611.4036         2611.3818                                                                  
   301     9.9579    2616(51)          2606.3809         2606.3604                                                                  
   302     9.9746    2584(51)          2601.3582         2601.3386                                                                  
   303     9.9913    2610(51)          2596.3357         2596.3171                                                                  
   304    10.0080    2730(52)          2591.3132         2591.2957                                                                  
   305    10.0247    2543(50)          2586.2905         2586.2739                                                                  
   306    10.0415    2565(51)          2581.2683         2581.2524                                                                  
   307    10.0582    2647(51)          2576.2458         2576.2307                                                                  
   308    10.0749    2526(50)          2571.2234         2571.2090                                                                  
   309    10.0916    2540(50)          2566.2014         2566.1877                                                                  
   310    10.1083    2446(49)          2561.1790         2561.1658                                                                  
   311    10.1250    2492(50)          2556.1570         2556.1445                                                                  
   312    10.1417    2597(51)          2551.1345         2551.1226                                                                  
   313    10.1584    2476(50)          2546.1128         2546.1013                                                                  
   314    10.1751    2530(50)          2541.0903         2541.0793                                                                  
   315    10.1919    2581(51)          2536.0688         2536.0581                                                                  
   316    10.2086    2563(51)          2531.0466         2531.0364                                                                  
   317    10.2253    2565(51)          2526.0247         2526.0149                                                                  
   318    10.2420    2586(51)          2521.0027         2520.9932                                                                  
   319    10.2587    2506(50)          2515.9817         2515.9719                                                                  
   320    10.2754    2488(50)          2510.9595         2510.9500                                                                  
   321    10.2921    2369(49)          2505.9380         2505.9287                                                                  
   322    10.3088    2477(50)          2500.9158         2500.9067                                                                  
   323    10.3255    2415(49)          2495.8940         2495.8853                                                                  
   324    10.3423    2525(50)          2490.8721         2490.8635                                                                  
   325    10.3590    2496(50)          2485.8503         2485.8420                                                                  
   326    10.3757    2569(51)          2480.8284         2480.8203                                                                  
   327    10.3924    2489(50)          2475.8069         2475.7988                                                                  
   328    10.4091    2438(49)          2470.7827         2470.7773                                                                  
   329    10.4258    2553(51)          2465.7598         2465.7556                                                                  
   330    10.4425    2464(50)          2460.7383         2460.7341                                                                  
   331    10.4592    2390(49)          2455.7166         2455.7124                                                                  
   332    10.4760    2438(49)          2450.6951         2450.6909                                                                  
   333    10.4927    2471(50)          2445.6733         2445.6694                                                                  
   334    10.5094    2441(49)          2440.6516         2440.6477                                                                  
   335    10.5261    2346(48)          2435.6284         2435.6262                                                                  
   336    10.5428    2463(50)          2430.7415         2430.7400                                                                  
   337    10.5595    2424(49)          2426.7344         2426.7329                                                                  
   338    10.5762    2434(49)          2422.7278         2422.7261                                                                  
   339    10.5929    2453(50)          2418.7207         2418.7190                                                                  
   340    10.6096    2484(50)          2414.7139         2414.7122                                                                  
   341    10.6264    2483(50)          2410.7068         2410.7048                                                                  
   342    10.6431    2292(48)          2406.7002         2406.6982                                                                  
   343    10.6598    2333(48)          2402.6929         2402.6909                                                                  
   344    10.6765    2408(49)          2398.6868         2398.6843                                                                  
   345    10.6932    2373(49)          2394.6797         2394.6770                                                                  
   346    10.7099    2391(49)          2390.6733         2390.6704                                                                  
   347    10.7266    2375(49)          2386.6663         2386.6631                                                                  
   348    10.7433    2457(50)          2382.6594         2382.6562                                                                  
   349    10.7600    2327(48)          2378.6526         2378.6492                                                                  
   350    10.7768    2318(48)          2374.6458         2374.6421                                                                  
   351    10.7935    2341(48)          2370.6392         2370.6353                                                                  
   352    10.8102    2460(50)          2366.6323         2366.6282                                                                  
   353    10.8269    2440(49)          2362.6257         2362.6213                                                                  
   354    10.8436    2283(48)          2358.6189         2358.6143                                                                  
   355    10.8603    2335(48)          2354.6121         2354.6072                                                                  
   356    10.8770    2391(49)          2350.6055         2350.6003                                                                  
   357    10.8937    2442(49)          2346.5989         2346.5933                                                                  
   358    10.9104    2299(48)          2342.5923         2342.5864                                                                  
   359    10.9272    2373(49)          2338.5857         2338.5793                                                                  
   360    10.9439    2369(49)          2334.5793         2334.5725                                                                  
   361    10.9606    2377(49)          2330.5728         2330.5654                                                                  
   362    10.9773    2437(49)          2326.5664         2326.5583                                                                  
   363    10.9940    2342(48)          2322.5603         2322.5515                                                                  
   364    11.0107    2305(48)          2318.5537         2318.5442                                                                  
   365    11.0274    2380(49)          2314.5481         2314.5376                                                                  
   366    11.0441    2262(48)          2310.5420         2310.5303                                                                  
   367    11.0608    2324(48)          2306.5366         2306.5237                                                                  
   368    11.0776    2247(47)          2302.5312         2302.5164                                                                  
   369    11.0943    2184(47)          2298.5278         2298.5098                                                                  
   370    11.1110    2285(48)          2294.5273         2294.5024                                                                  
   371    11.1277    2303(48)          2290.5361         2290.4956                                                                  
   372    11.1444    2270(48)          2286.5662         2286.4885                                                                  
   373    11.1611    2300(48)          2282.6443         2282.4817                                                                  
   374    11.1778    2400(49)          2278.8186         2278.4746                                                                  
   375    11.1945    2365(49)          2275.1685         2274.4678                                                                  
   376    11.2112    2230(47)          2271.8054         2270.4607                                                                  
   377    11.2280    2313(48)          2268.8577         2266.4539                                                                  
   378    11.2447    2187(47)          2266.4316         2262.4465                                                                  
   379    11.2614    2298(48)          2264.5530         2258.4397                                                                  
   380    11.2781    2197(47)          2263.1030         2254.4326                                                                  
   381    11.2948    2171(47)          2261.7913         2250.4258                                                                  
   382    11.3115    2351(48)          2260.1851         2246.4187                                                                  
   383    11.3282    2235(47)          2257.8176         2242.4119                                                                  
   384    11.3449    2300(48)          2254.3318         2238.4048                                                                  
   385    11.3616    2209(47)          2249.6118         2234.3977                                                                  
   386    11.3784    2149(46)          2243.8242         2230.3909                                                                  
   387    11.3951    2235(47)          2237.3525         2226.3838                                                                  
   388    11.4118    2244(47)          2230.6638         2222.3770                                                                  
   389    11.4285    2204(47)          2224.1658         2218.3699                                                                  
   390    11.4452    2201(47)          2218.5183         2214.7625                                                                  
   391    11.4619    2135(46)          2213.6355         2211.3770                                                                  
   392    11.4786    2246(47)          2209.2559         2207.9917                                                                  
   393    11.4953    2299(48)          2205.2695         2204.6062                                                                  
   394    11.5120    2164(47)          2201.5530         2201.2209                                                                  
   395    11.5288    2286(48)          2198.0015         2197.8354                                                                  
   396    11.5455    2222(47)          2194.5442         2194.4502                                                                  
   397    11.5622    2237(47)          2191.1414         2191.0647                                                                  
   398    11.5789    2201(47)          2187.7825         2187.6794                                                                  
   399    11.5956    2236(47)          2184.4807         2184.2939                                                                  
   400    11.6123    2284(48)          2181.2754         2180.9089                                                                  
   401    11.6290    2166(47)          2178.2275         2177.5232                                                                  
   402    11.6457    2161(46)          2175.4175         2174.1382                                                                  
   403    11.6625    2197(47)          2172.9189         2170.7524                                                                  
   404    11.6792    2136(46)          2170.7705         2167.3674                                                                  
   405    11.6959    2164(47)          2168.9292         2163.9819                                                                  
   406    11.7126    2168(47)          2167.2468         2160.5967                                                                  
   407    11.7293    2025(45)          2165.4736         2157.2112                                                                  
   408    11.7460    2188(47)          2163.3120         2153.8257                                                                  
   409    11.7627    2141(46)          2160.5032         2150.4404                                                                  
   410    11.7794    2161(46)          2156.9182         2147.0549                                                                  
   411    11.7961    2153(46)          2152.6060         2143.6697                                                                  
   412    11.8129    2226(47)          2147.7717         2140.2844                                                                  
   413    11.8296    2172(47)          2142.7031         2136.8989                                                                  
   414    11.8463    2179(47)          2137.6792         2133.5137                                                                  
   415    11.8630    2127(46)          2132.9023         2130.1282                                                                  
   416    11.8797    2057(45)          2128.4553         2126.7429                                                                  
   417    11.8964    2127(46)          2124.3433         2123.3574                                                                  
   418    11.9131    2085(46)          2120.5032         2119.9722                                                                  
   419    11.9298    2139(46)          2116.8586         2116.5869                                                                  
   420    11.9465    2051(45)          2113.3374         2113.2014                                                                  
   421    11.9633    2090(46)          2109.8867         2109.8162                                                                  
   422    11.9800    2174(47)          2106.4719         2106.4307                                                                  
   423    11.9967    2067(45)          2103.0742         2103.0454                                                                  
   424    12.0134    2068(45)          2099.6836         2099.6599                                                                  
   425    12.0301    2092(46)          2096.2959         2096.2747                                                                  
   426    12.0468    1990(45)          2092.9094         2092.8892                                                                  
   427    12.0635    2120(46)          2089.5234         2089.5039                                                                  
   428    12.0802    2072(46)          2086.1375         2086.1184                                                                  
   429    12.0969    2154(46)          2082.7520         2082.7332                                                                  
   430    12.1137    2027(45)          2079.3665         2079.3477                                                                  
   431    12.1304    2035(45)          2075.9812         2075.9624                                                                  
   432    12.1471    2103(46)          2072.5957         2072.5769                                                                  
   433    12.1638    2023(45)          2069.2109         2069.1919                                                                  
   434    12.1805    2040(45)          2065.8254         2065.8062                                                                  
   435    12.1972    2051(45)          2062.4404         2062.4209                                                                  
   436    12.2139    2098(46)          2059.0557         2059.0356                                                                  
   437    12.2306    2070(45)          2055.6704         2055.6501                                                                  
   438    12.2473    2013(45)          2052.2859         2052.2649                                                                  
   439    12.2641    2003(45)          2048.9009         2048.8794                                                                  
   440    12.2808    2030(45)          2045.5262         2045.4941                                                                  
   441    12.2975    2058(45)          2042.1420         2042.1088                                                                  
   442    12.3142    2015(45)          2038.7627         2038.7234                                                                  
   443    12.3309    2083(46)          2035.3788         2035.3380                                                                  
   444    12.3476    2014(45)          2031.9950         2031.9526                                                                  
   445    12.3643    2097(46)          2028.6113         2028.5673                                                                  
   446    12.3810    1987(45)          2025.2278         2025.1819                                                                  
   447    12.3977    1991(45)          2021.8446         2021.7966                                                                  
   448    12.4145    1982(45)          2018.4615         2018.4113                                                                  
   449    12.4312    2077(46)          2015.0778         2015.0256                                                                  
   450    12.4479    2040(45)          2011.6953         2011.6405                                                                  
   451    12.4646    1978(44)          2008.3124         2008.2549                                                                  
   452    12.4813    1986(45)          2004.9305         2004.8698                                                                  
   453    12.4980    2028(45)          2001.5486         2001.4843                                                                  
   454    12.5147    1948(44)          1998.1675         1998.0991                                                                  
   455    12.5314    2034(45)          1994.7861         1994.7135                                                                  
   456    12.5481    1965(44)          1991.4750         1991.3975                                                                  
   457    12.5649    1998(45)          1988.9308         1988.8478                                                                  
   458    12.5816    1949(44)          1986.3876         1986.2985                                                                  
   459    12.5983    1930(44)          1983.8447         1983.7488                                                                  
   460    12.6150    2052(45)          1981.3032         1981.1995                                                                  
   461    12.6317    2009(45)          1978.7627         1978.6498                                                                  
   462    12.6484    2015(45)          1976.2236         1976.1003                                                                  
   463    12.6651    1943(44)          1973.6869         1973.5508                                                                  
   464    12.6818    2040(45)          1971.1544         1971.0012                                                                  
   465    12.6985    1985(45)          1968.6322         1968.4517                                                                  
   466    12.7153    1897(44)          1966.1366         1965.9022                                                                  
   467    12.7320    1947(44)          1963.7080         1963.3527                                                                  
   468    12.7487    1931(44)          1961.4415         1960.8032                                                                  
   469    12.7654    1921(44)          1959.5336         1958.2537                                                                  
   470    12.7821    1988(45)          1958.3497         1955.7041                                                                  
   471    12.7988    1904(44)          1958.4866         1953.1547                                                                  
   472    12.8155    2044(45)          1960.7811         1950.6051                                                                  
   473    12.8322    2020(45)          1966.1978         1948.0557                                                                  
   474    12.8490    1975(44)          1975.5353         1945.5061                                                                  
   475    12.8657    2027(45)          1988.9816         1942.9565                                                                  
   476    12.8824    1986(45)          2005.6520         1940.4071                                                                  
   477    12.8991    1998(45)          2023.3701         1937.8575                                                                  
   478    12.9158    1965(44)          2038.9130         1935.3079                                                                  
   479    12.9325    2122(46)          2048.7822         1932.7585                                                                  
   480    12.9492    1993(45)          2050.3105         1930.2089                                                                  
   481    12.9659    2034(45)          2042.6145         1927.6595                                                                  
   482    12.9826    2164(47)          2026.8995         1925.1099                                                                  
   483    12.9994    2144(46)          2005.9954         1922.5605                                                                  
   484    13.0161    2017(45)          1983.3585         1920.0109                                                                  
   485    13.0328    1901(44)          1962.0510         1917.4614                                                                  
   486    13.0495    1958(44)          1944.0431         1914.9119                                                                  
   487    13.0662    1872(43)          1930.0710         1912.3624                                                                  
   488    13.0829    1934(44)          1919.8804         1909.8127                                                                  
   489    13.0996    1951(44)          1912.6827         1907.2634                                                                  
   490    13.1163    1903(44)          1907.5597         1904.7137                                                                  
   491    13.1330    1882(43)          1903.7372         1902.1644                                                                  
   492    13.1498    1908(44)          1900.6965         1899.6147                                                                  
   493    13.1665    1939(44)          1898.2074         1897.0654                                                                  
   494    13.1832    1842(43)          1896.3402         1894.5157                                                                  
   495    13.1999    1828(43)          1895.5226         1891.9664                                                                  
   496    13.2166    1913(44)          1896.6289         1889.4167                                                                  
   497    13.2333    1960(44)          1901.0488         1886.8673                                                                  
   498    13.2500    1831(43)          1910.6056         1884.3177                                                                  
   499    13.2667    2007(45)          1927.1749         1881.7681                                                                  
   500    13.2834    1966(44)          1951.9468         1879.2186                                                                  
   501    13.3002    1993(45)          1984.4851         1876.6691                                                                  
   502    13.3169    2014(45)          2021.9286         1874.1196                                                                  
   503    13.3336    2039(45)          2058.9331         1871.5699                                                                  
   504    13.3503    2147(46)          2088.5894         1869.0206                                                                  
   505    13.3670    2194(47)          2104.3508         1866.4709                                                                  
   506    13.3837    2200(47)          2102.2192         1863.9216                                                                  
   507    13.4004    2125(46)          2082.2007         1861.3719                                                                  
   508    13.4171    2089(46)          2048.2358         1858.8226                                                                  
   509    13.4338    2035(45)          2006.7303         1856.2729                                                                  
   510    13.4506    1964(44)          1964.4728         1853.7235                                                                  
   511    13.4673    1911(44)          1926.7589         1851.1740                                                                  
   512    13.4840    1890(43)          1896.5011         1848.6245                                                                  
   513    13.5007    1786(42)          1874.2692         1846.0750                                                                  
   514    13.5174    1794(42)          1859.0155         1843.5255                                                                  
   515    13.5341    1903(44)          1848.9832         1840.9758                                                                  
   516    13.5508    1956(44)          1842.3990         1838.4265                                                                  
   517    13.5675    1794(42)          1837.8652         1835.8768                                                                  
   518    13.5842    1840(43)          1834.4484         1833.3275                                                                  
   519    13.6010    1803(42)          1831.6074         1830.7778                                                                  
   520    13.6177    1785(42)          1829.0676         1828.2285                                                                  
   521    13.6344    1763(42)          1826.6980         1825.6788                                                                  
   522    13.6511    1821(43)          1824.4316         1823.1294                                                                  
   523    13.6678    1775(42)          1822.2137         1820.5798                                                                  
   524    13.6845    1882(43)          1819.9840         1818.0304                                                                  
   525    13.7012    1924(44)          1817.6766         1815.4807                                                                  
   526    13.7179    1860(43)          1815.2371         1812.9314                                                                  
   527    13.7346    1826(43)          1812.6367         1810.3817                                                                  
   528    13.7514    1763(42)          1809.7004         1807.6473                                                                  
   529    13.7681    1791(42)          1806.5985         1804.8567                                                                  
   530    13.7848    1785(42)          1803.4489         1802.0658                                                                  
   531    13.8015    1761(42)          1800.3042         1799.2751                                                                  
   532    13.8182    1741(42)          1797.2102         1796.4843                                                                  
   533    13.8349    1708(41)          1794.1849         1793.6936                                                                  
   534    13.8516    1795(42)          1791.2300         1790.9027                                                                  
   535    13.8683    1788(42)          1788.3397         1788.1121                                                                  
   536    13.8850    1808(43)          1785.4869         1785.3210                                                                  
   537    13.9018    1766(42)          1782.6650         1782.5305                                                                  
   538    13.9185    1831(43)          1779.8562         1779.7395                                                                  
   539    13.9352    1781(42)          1777.0566         1776.9490                                                                  
   540    13.9519    1831(43)          1774.2609         1774.1580                                                                  
   541    13.9686    1765(42)          1771.4675         1771.3673                                                                  
   542    13.9853    1754(42)          1768.6750         1768.5764                                                                  
   543    14.0020    1745(42)          1765.8834         1765.7858                                                                  
   544    14.0187    1707(41)          1763.0920         1762.9949                                                                  
   545    14.0354    1771(42)          1760.2966         1760.2042                                                                  
   546    14.0522    1825(43)          1757.5062         1757.4133                                                                  
   547    14.0689    1764(42)          1754.7141         1754.6227                                                                  
   548    14.0856    1719(41)          1751.9246         1751.8318                                                                  
   549    14.1023    1651(41)          1749.1357         1749.0411                                                                  
   550    14.1190    1767(42)          1746.3470         1746.2502                                                                  
   551    14.1357    1672(41)          1743.5591         1743.4596                                                                  
   552    14.1524    1694(41)          1740.7712         1740.6686                                                                  
   553    14.1691    1757(42)          1737.9845         1737.8781                                                                  
   554    14.1859    1706(41)          1735.1979         1735.0870                                                                  
   555    14.2026    1776(42)          1732.4125         1732.2965                                                                  
   556    14.2193    1759(42)          1729.6273         1729.5055                                                                  
   557    14.2360    1686(41)          1726.8434         1726.7146                                                                  
   558    14.2527    1765(42)          1724.0608         1723.9240                                                                  
   559    14.2694    1733(42)          1721.2793         1721.1331                                                                  
   560    14.2861    1753(42)          1718.4999         1718.3424                                                                  
   561    14.3028    1744(42)          1715.7230         1715.5515                                                                  
   562    14.3195    1744(42)          1713.3561         1713.1649                                                                  
   563    14.3363    1732(42)          1711.9546         1711.7307                                                                  
   564    14.3530    1676(41)          1710.5867         1710.2966                                                                  
   565    14.3697    1689(41)          1709.3015         1708.8624                                                                  
   566    14.3864    1674(41)          1708.2096         1707.4283                                                                  
   567    14.4031    1671(41)          1707.5317         1705.9941                                                                  
   568    14.4198    1707(41)          1707.6606         1704.5602                                                                  
   569    14.4365    1756(42)          1709.2069         1703.1260                                                                  
   570    14.4532    1774(42)          1712.9684         1701.6919                                                                  
   571    14.4699    1637(40)          1719.8236         1700.2577                                                                  
   572    14.4867    1756(42)          1730.3560         1698.8236                                                                  
   573    14.5034    1695(41)          1744.5106         1697.3894                                                                  
   574    14.5201    1734(42)          1761.1891         1695.9553                                                                  
   575    14.5368    1682(41)          1778.2054         1694.5211                                                                  
   576    14.5535    1727(42)          1792.6169         1693.0870                                                                  
   577    14.5702    1807(43)          1801.5071         1691.6528                                                                  
   578    14.5869    1830(43)          1802.9073         1690.2189                                                                  
   579    14.6036    1798(42)          1796.4633         1688.7847                                                                  
   580    14.6203    1839(43)          1783.4733         1687.3506                                                                  
   581    14.6371    1756(42)          1766.3662         1685.9164                                                                  
   582    14.6538    1900(44)          1747.9087         1684.4823                                                                  
   583    14.6705    1690(41)          1730.4642         1683.0481                                                                  
   584    14.6872    1787(42)          1715.6206         1681.6140                                                                  
   585    14.7039    1743(42)          1704.1709         1680.1798                                                                  
   586    14.7206    1768(42)          1696.3740         1678.7456                                                                  
   587    14.7373    1691(41)          1692.2595         1677.3115                                                                  
   588    14.7540    1697(41)          1691.8424         1675.8773                                                                  
   589    14.7707    1702(41)          1695.1738         1674.4434                                                                  
   590    14.7875    1736(42)          1702.2433         1673.0092                                                                  
   591    14.8042    1766(42)          1712.8207         1671.5751                                                                  
   592    14.8209    1692(41)          1726.3473         1670.1409                                                                  
   593    14.8376    1802(42)          1741.9093         1668.7068                                                                  
   594    14.8543    1770(42)          1758.3187         1667.2726                                                                  
   595    14.8710    1723(42)          1774.1957         1665.8385                                                                  
   596    14.8877    1863(43)          1788.0707         1664.4043                                                                  
   597    14.9044    1845(43)          1798.2239         1662.9703                                                                  
   598    14.9211    1776(42)          1803.0393         1661.5361                                                                  
   599    14.9379    1884(43)          1801.1125         1660.1021                                                                  
   600    14.9546    1743(42)          1791.9080         1658.6678                                                                  
   601    14.9713    1757(42)          1776.0902         1657.2338                                                                  
   602    14.9880    1745(42)          1755.5945         1655.7996                                                                  
   603    15.0047    1742(42)          1732.9152         1654.3655                                                                  
   604    15.0214    1637(40)          1710.8260         1652.9313                                                                  
   605    15.0381    1559(39)          1691.4897         1651.4973                                                                  
   606    15.0548    1688(41)          1675.9924         1650.0630                                                                  
   607    15.0715    1636(40)          1664.5759         1648.6290                                                                  
   608    15.0883    1571(40)          1656.7383         1647.1948                                                                  
   609    15.1050    1633(40)          1651.6357         1645.7607                                                                  
   610    15.1217    1650(41)          1648.3755         1644.3265                                                                  
   611    15.1384    1654(41)          1646.2007         1642.8925                                                                  
   612    15.1551    1606(40)          1644.5536         1641.4583                                                                  
   613    15.1718    1617(40)          1643.0709         1640.0240                                                                  
   614    15.1885    1626(40)          1641.6058         1638.5900                                                                  
   615    15.2052    1611(40)          1640.0297         1637.1558                                                                  
   616    15.2220    1572(40)          1638.3037         1635.7218                                                                  
   617    15.2387    1567(40)          1636.4810         1634.2876                                                                  
   618    15.2554    1564(40)          1634.6808         1632.8535                                                                  
   619    15.2721    1545(39)          1632.8938         1631.4193                                                                  
   620    15.2888    1558(39)          1631.1812         1629.9852                                                                  
   621    15.3055    1620(40)          1629.5509         1628.5510                                                                  
   622    15.3222    1634(40)          1627.9951         1627.1169                                                                  
   623    15.3389    1607(40)          1626.4972         1625.6827                                                                  
   624    15.3556    1568(40)          1625.0409         1624.2487                                                                  
   625    15.3724    1576(40)          1623.6136         1622.8145                                                                  
   626    15.3891    1635(40)          1622.2118         1621.3805                                                                  
   627    15.4058    1562(40)          1620.8408         1619.9463                                                                  
   628    15.4225    1549(39)          1619.5212         1618.5122                                                                  
   629    15.4392    1574(40)          1618.2894         1617.0780                                                                  
   630    15.4559    1552(39)          1617.2003         1615.6439                                                                  
   631    15.4726    1574(40)          1616.3188         1614.2097                                                                  
   632    15.4893    1592(40)          1615.7036         1612.7756                                                                  
   633    15.5060    1607(40)          1615.3768         1611.3414                                                                  
   634    15.5228    1570(40)          1615.2938         1609.9075                                                                  
   635    15.5395    1602(40)          1615.3237         1608.4731                                                                  
   636    15.5562    1619(40)          1615.2612         1607.0392                                                                  
   637    15.5729    1622(40)          1614.8699         1605.6050                                                                  
   638    15.5896    1559(39)          1614.0028         1604.1709                                                                  
   639    15.6063    1556(39)          1612.4741         1602.7367                                                                  
   640    15.6230    1600(40)          1610.3806         1601.3026                                                                  
   641    15.6397    1595(40)          1607.9126         1599.8684                                                                  
   642    15.6564    1512(39)          1605.2428         1598.4342                                                                  
   643    15.6732    1597(40)          1602.6261         1597.0001                                                                  
   644    15.6899    1531(39)          1600.2188         1595.5659                                                                  
   645    15.7066    1600(40)          1598.1202         1594.1320                                                                  
   646    15.7233    1498(39)          1596.3779         1592.6978                                                                  
   647    15.7400    1609(40)          1595.0707         1591.2637                                                                  
   648    15.7567    1560(39)          1594.4346         1589.8295                                                                  
   649    15.7734    1545(39)          1595.0742         1588.3954                                                                  
   650    15.7901    1532(39)          1598.2874         1586.9612                                                                  
   651    15.8068    1636(40)          1606.5216         1585.5271                                                                  
   652    15.8236    1595(40)          1623.5023         1584.0929                                                                  
   653    15.8403    1609(40)          1654.5659         1582.6589                                                                  
   654    15.8570    1724(42)          1705.6245         1581.2246                                                                  
   655    15.8737    1842(43)          1781.7222         1579.7906                                                                  
   656    15.8904    1917(44)          1884.7828         1578.3564                                                                  
   657    15.9071    2053(45)          2011.7911         1576.9224                                                                  
   658    15.9238    2148(46)          2154.7966         1575.4882                                                                  
   659    15.9405    2354(49)          2303.1201         1574.0541                                                                  
   660    15.9572    2546(50)          2447.6250         1572.6199                                                                  
   661    15.9740    2564(51)          2584.4568         1571.1858                                                                  
   662    15.9907    2683(52)          2715.7896         1569.7516                                                                  
   663    16.0074    2871(54)          2845.3933         1568.3176                                                                  
   664    16.0241    2996(55)          2971.8384         1566.8833                                                                  
   665    16.0408    2997(55)          3083.2629         1565.4493                                                                  
   666    16.0575    3173(56)          3157.8672         1564.0151                                                                  
   667    16.0742    3067(55)          3171.3877         1562.5811                                                                  
   668    16.0909    3188(56)          3109.0364         1561.1469                                                                  
   669    16.1076    2958(54)          2975.0405         1559.7128                                                                  
   670    16.1244    2894(54)          2794.9795         1558.2786                                                                  
   671    16.1411    2734(52)          2611.0571         1556.8444                                                                  
   672    16.1578    2550(50)          2471.9211         1555.4103                                                                  
   673    16.1745    2432(49)          2420.4568         1553.9761                                                                  
   674    16.1912    2520(50)          2483.0386         1552.5421                                                                  
   675    16.2079    2676(52)          2661.7988         1551.1079                                                                  
   676    16.2246    2944(54)          2931.2961         1549.6738                                                                  
   677    16.2413    3262(57)          3241.2930         1548.2396                                                                  
   678    16.2580    3591(60)          3526.0942         1546.8055                                                                  
   679    16.2748    3726(61)          3720.4998         1545.3713                                                                  
   680    16.2915    3805(62)          3777.3643         1543.9373                                                                  
   681    16.3082    3660(60)          3680.8472         1542.5031                                                                  
   682    16.3249    3361(58)          3449.2959         1541.0691                                                                  
   683    16.3416    3159(56)          3127.0823         1539.6348                                                                  
   684    16.3583    2714(52)          2769.8325         1538.2008                                                                  
   685    16.3750    2353(49)          2428.4290         1536.7666                                                                  
   686    16.3917    2097(46)          2138.2478         1535.3325                                                                  
   687    16.4085    1905(44)          1915.1990         1533.8983                                                                  
   688    16.4252    1791(42)          1758.7781         1532.4642                                                                  
   689    16.4419    1789(42)          1658.0885         1531.0300                                                                  
   690    16.4586    1748(42)          1598.5389         1529.5959                                                                  
   691    16.4753    1664(41)          1566.6230         1528.1617                                                                  
   692    16.4920    1683(41)          1552.6387         1526.7278                                                                  
   693    16.5087    1670(41)          1551.5452         1525.2936                                                                  
   694    16.5254    1599(40)          1562.8512         1523.8595                                                                  
   695    16.5421    1736(42)          1589.9216         1522.4253                                                                  
   696    16.5589    1738(42)          1638.6740         1520.9912                                                                  
   697    16.5756    1794(42)          1715.3951         1519.5570                                                                  
   698    16.5923    1867(43)          1823.4836         1518.1228                                                                  
   699    16.6090    1993(45)          1959.8534         1516.6887                                                                  
   700    16.6257    2097(46)          2112.4832         1515.2545                                                                  
   701    16.6424    2385(49)          2260.5759         1513.8206                                                                  
   702    16.6591    2321(48)          2378.6934         1512.3862                                                                  
   703    16.6758    2391(49)          2443.8379         1510.9523                                                                  
   704    16.6925    2403(49)          2443.5122         1509.5181                                                                  
   705    16.7093    2427(49)          2380.4692         1508.0840                                                                  
   706    16.7260    2297(48)          2272.3093         1506.6498                                                                  
   707    16.7427    2239(47)          2146.9565         1505.2157                                                                  
   708    16.7594    1953(44)          2035.5742         1503.7815                                                                  
   709    16.7761    1964(44)          1965.4110         1502.3474                                                                  
   710    16.7928    1978(44)          1954.0618         1500.9132                                                                  
   711    16.8095    2000(45)          2006.0120         1499.4792                                                                  
   712    16.8262    2035(45)          2111.3364         1498.0449                                                                  
   713    16.8429    2213(47)          2246.9551         1496.6110                                                                  
   714    16.8597    2374(49)          2381.0698         1495.1768                                                                  
   715    16.8764    2432(49)          2480.3596         1493.7427                                                                  
   716    16.8931    2635(51)          2518.9956         1492.3085                                                                  
   717    16.9098    2574(51)          2485.8989         1490.8744                                                                  
   718    16.9265    2404(49)          2386.9136         1489.4402                                                                  
   719    16.9432    2238(47)          2241.4419         1488.0061                                                                  
   720    16.9599    2005(45)          2075.5156         1486.5719                                                                  
   721    16.9766    1985(45)          1914.0823         1485.1379                                                                  
   722    16.9933    1725(42)          1775.0027         1483.7037                                                                  
   723    17.0101    1685(41)          1666.9730         1482.2697                                                                  
   724    17.0268    1527(39)          1590.4506         1480.8354                                                                  
   725    17.0435    1505(39)          1540.6324         1479.4014                                                                  
   726    17.0602    1486(39)          1510.5059         1477.9672                                                                  
   727    17.0769    1416(38)          1493.4102         1476.5330                                                                  
   728    17.0936    1545(39)          1484.0103         1475.0989                                                                  
   729    17.1103    1618(40)          1478.7855         1473.6647                                                                  
   730    17.1270    1859(43)          1475.6111         1472.2307                                                                  
   731    17.1437    1966(44)          1473.3682         1470.7964                                                                  
   732    17.1605    2110(46)          1471.4514         1469.3624                                                                  
   733    17.1772    2226(47)          1469.7722         1467.9282                                                                  
   734    17.1939    2202(47)          1468.1633         1466.4941                                                                  
   735    17.2106    2167(47)          1466.5541         1465.0599                                                                  
   736    17.2273    1948(44)          1465.0021         1463.6259                                                                  
   737    17.2440    1795(42)          1463.4650         1462.1917                                                                  
   738    17.2607    1690(41)          1461.9402         1460.7576                                                                  
   739    17.2774    1645(41)          1460.4254         1459.3234                                                                  
   740    17.2941    1569(40)          1458.9194         1457.8894                                                                  
   741    17.3109    1488(39)          1457.4204         1456.4551                                                                  
   742    17.3276    1402(37)          1455.9281         1455.0211                                                                  
   743    17.3443    1375(37)          1454.4410         1453.5869                                                                  
   744    17.3610    1494(39)          1452.9056         1452.1528                                                                  
   745    17.3777    1417(38)          1451.3682         1450.7186                                                                  
   746    17.3944    1477(38)          1449.8705         1449.2845                                                                  
   747    17.4111    1427(38)          1448.4034         1447.8503                                                                  
   748    17.4278    1431(38)          1446.9094         1446.4163                                                                  
   749    17.4445    1343(37)          1445.4486         1444.9822                                                                  
   750    17.4613    1385(37)          1443.9899         1443.5481                                                                  
   751    17.4780    1385(37)          1442.5331         1442.1139                                                                  
   752    17.4947    1370(37)          1441.0780         1440.6798                                                                  
   753    17.5114    1378(37)          1439.6244         1439.2456                                                                  
   754    17.5281    1372(37)          1438.1724         1437.8115                                                                  
   755    17.5448    1468(38)          1436.7214         1436.3773                                                                  
   756    17.5615    1315(36)          1435.3049         1434.9431                                                                  
   757    17.5782    1441(38)          1433.8575         1433.5090                                                                  
   758    17.5950    1392(37)          1432.4271         1432.0748                                                                  
   759    17.6117    1396(37)          1430.9821         1430.6409                                                                  
   760    17.6284    1392(37)          1429.5376         1429.2065                                                                  
   761    17.6451    1346(37)          1428.0944         1427.7726                                                                  
   762    17.6618    1331(36)          1426.6516         1426.3384                                                                  
   763    17.6785    1362(37)          1425.2096         1424.9043                                                                  
   764    17.6952    1340(37)          1423.7682         1423.4701                                                                  
   765    17.7119    1385(37)          1422.3276         1422.0360                                                                  
   766    17.7286    1323(36)          1420.8875         1420.6018                                                                  
   767    17.7454    1334(37)          1419.4480         1419.1677                                                                  
   768    17.7621    1381(37)          1417.9606         1417.7336                                                                  
   769    17.7788    1403(37)          1416.5237         1416.2996                                                                  
   770    17.7955    1353(37)          1415.0872         1414.8654                                                                  
   771    17.8122    1327(36)          1413.6295         1413.4313                                                                  
   772    17.8289    1283(36)          1412.1946         1411.9971                                                                  
   773    17.8456    1340(37)          1410.7603         1410.5630                                                                  
   774    17.8623    1366(37)          1409.1171         1408.9185                                                                  
   775    17.8790    1344(37)          1407.1228         1406.9236                                                                  
   776    17.8958    1420(38)          1405.1288         1404.9285                                                                  
   777    17.9125    1357(37)          1403.1354         1402.9336                                                                  
   778    17.9292    1248(35)          1401.1422         1400.9385                                                                  
   779    17.9459    1337(37)          1399.1499         1398.9436                                                                  
   780    17.9626    1393(37)          1397.1577         1396.9485                                                                  
   781    17.9793    1374(37)          1395.1132         1394.9535                                                                  
   782    17.9960    1345(37)          1393.1237         1392.9584                                                                  
   783    18.0127    1364(37)          1391.1082         1390.9635                                                                  
   784    18.0294    1292(36)          1389.1206         1388.9684                                                                  
   785    18.0462    1351(37)          1387.1338         1386.9733                                                                  
   786    18.0629    1287(36)          1385.1478         1384.9784                                                                  
   787    18.0796    1275(36)          1383.1625         1382.9833                                                                  
   788    18.0963    1385(37)          1381.1782         1380.9884                                                                  
   789    18.1130    1333(37)          1379.1946         1378.9932                                                                  
   790    18.1297    1355(37)          1377.2123         1376.9983                                                                  
   791    18.1464    1348(37)          1375.2311         1375.0032                                                                  
   792    18.1631    1395(37)          1373.2515         1373.0083                                                                  
   793    18.1798    1415(38)          1371.2732         1371.0132                                                                  
   794    18.1966    1332(36)          1369.2970         1369.0183                                                                  
   795    18.2133    1358(37)          1367.3226         1367.0232                                                                  
   796    18.2300    1339(37)          1365.3510         1365.0283                                                                  
   797    18.2467    1304(36)          1363.3817         1363.0331                                                                  
   798    18.2634    1289(36)          1361.4160         1361.0382                                                                  
   799    18.2801    1326(36)          1359.4539         1359.0431                                                                  
   800    18.2968    1341(37)          1357.4965         1357.0482                                                                  
   801    18.3135    1348(37)          1355.5442         1355.0531                                                                  
   802    18.3302    1286(36)          1353.5988         1353.0582                                                                  
   803    18.3470    1350(37)          1351.6613         1351.0631                                                                  
   804    18.3637    1274(36)          1349.7358         1349.0681                                                                  
   805    18.3804    1312(36)          1347.8303         1347.0730                                                                  
   806    18.3971    1265(36)          1345.9673         1345.0781                                                                  
   807    18.4138    1342(37)          1344.2057         1343.0830                                                                  
   808    18.4305    1232(35)          1342.6954         1341.0881                                                                  
   809    18.4472    1321(36)          1341.7820         1339.0930                                                                  
   810    18.4639    1366(37)          1342.1913         1337.0981                                                                  
   811    18.4806    1389(37)          1345.2886         1335.1030                                                                  
   812    18.4974    1335(37)          1353.3488         1333.1079                                                                  
   813    18.5141    1304(36)          1369.6635         1331.1129                                                                  
   814    18.5308    1340(37)          1398.2393         1329.1178                                                                  
   815    18.5475    1467(38)          1442.8073         1327.1229                                                                  
   816    18.5642    1387(37)          1505.2227         1325.1278                                                                  
   817    18.5809    1493(39)          1583.5560         1323.1329                                                                  
   818    18.5976    1666(41)          1670.8895         1321.1378                                                                  
   819    18.6143    1801(42)          1755.4998         1319.1429                                                                  
   820    18.6311    1882(43)          1823.1332         1317.1478                                                                  
   821    18.6478    1830(43)          1860.7894         1315.1528                                                                  
   822    18.6645    1898(44)          1860.9341         1313.1577                                                                  
   823    18.6812    1863(43)          1823.7958         1311.1628                                                                  
   824    18.6979    1778(42)          1756.8497         1309.1677                                                                  
   825    18.7146    1751(42)          1672.3408         1307.1729                                                                  
   826    18.7313    1603(40)          1583.7031         1305.1777                                                                  
   827    18.7480    1521(39)          1502.2916         1303.1829                                                                  
   828    18.7647    1388(37)          1435.3109         1301.1877                                                                  
   829    18.7815    1303(36)          1385.5760         1299.1927                                                                  
   830    18.7982    1410(38)          1352.3634         1297.1976                                                                  
   831    18.8149    1309(36)          1332.8441         1295.2028                                                                  
   832    18.8316    1339(37)          1323.3474         1293.2076                                                                  
   833    18.8483    1309(36)          1320.2537         1291.2128                                                                  
   834    18.8650    1304(36)          1320.4270         1289.2177                                                                  
   835    18.8817    1348(37)          1321.3867         1287.2228                                                                  
   836    18.8984    1308(36)          1321.3717         1285.2275                                                                  
   837    18.9151    1355(37)          1319.3864         1283.2327                                                                  
   838    18.9319    1260(35)          1315.1733         1281.2375                                                                  
   839    18.9486    1268(36)          1309.0731         1279.2427                                                                  
   840    18.9653    1299(36)          1301.7975         1277.2476                                                                  
   841    18.9820    1316(36)          1294.1829         1275.2524                                                                  
   842    18.9987    1298(36)          1286.9554         1273.2576                                                                  
   843    19.0154    1276(36)          1280.5868         1271.2625                                                                  
   844    19.0321    1282(36)          1275.2678         1269.2676                                                                  
   845    19.0488    1286(36)          1270.9547         1267.2723                                                                  
   846    19.0655    1309(36)          1267.4711         1265.2775                                                                  
   847    19.0823    1198(35)          1264.5903         1263.2823                                                                  
   848    19.0990    1262(36)          1262.1031         1261.2875                                                                  
   849    19.1157    1268(36)          1259.8495         1259.2924                                                                  
   850    19.1324    1258(35)          1257.7228         1257.2975                                                                  
   851    19.1491    1245(35)          1255.6594         1255.3024                                                                  
   852    19.1658    1246(35)          1253.6260         1253.3074                                                                  
   853    19.1825    1289(36)          1251.6061         1251.3123                                                                  
   854    19.1992    1249(35)          1249.6008         1249.3174                                                                  
   855    19.2159    1227(35)          1247.5911         1247.3223                                                                  
   856    19.2327    1274(36)          1245.5839         1245.3274                                                                  
   857    19.2494    1285(36)          1243.5820         1243.3323                                                                  
   858    19.2661    1224(35)          1241.5782         1241.3374                                                                  
   859    19.2828    1250(35)          1239.5754         1239.3423                                                                  
   860    19.2995    1261(36)          1237.5741         1237.3473                                                                  
   861    19.3162    1270(36)          1235.5739         1235.3522                                                                  
   862    19.3329    1203(35)          1233.5751         1233.3573                                                                  
   863    19.3496    1210(35)          1231.5771         1231.3622                                                                  
   864    19.3663    1256(35)          1229.5808         1229.3673                                                                  
   865    19.3831    1235(35)          1227.5861         1227.3722                                                                  
   866    19.3998    1208(35)          1225.5942         1225.3773                                                                  
   867    19.4165    1238(35)          1223.6075         1223.3821                                                                  
   868    19.4332    1159(34)          1221.6328         1221.3872                                                                  
   869    19.4499    1198(35)          1219.6823         1219.3921                                                                  
   870    19.4666    1198(35)          1217.7804         1217.3970                                                                  
   871    19.4833    1246(35)          1215.9712         1215.4021                                                                  
   872    19.5000    1235(35)          1214.6407         1213.7372                                                                  
   873    19.5167    1238(35)          1214.3688         1212.8987                                                                  
   874    19.5335    1157(34)          1214.4181         1212.0602                                                                  
   875    19.5502    1292(36)          1214.8680         1211.2217                                                                  
   876    19.5669    1242(35)          1215.7572         1210.3831                                                                  
   877    19.5836    1256(35)          1217.0732         1209.5446                                                                  
   878    19.6003    1212(35)          1218.7438         1208.7059                                                                  
   879    19.6170    1261(36)          1220.6570         1207.8674                                                                  
   880    19.6337    1234(35)          1222.7090         1207.0289                                                                  
   881    19.6504    1275(36)          1224.8629         1206.1904                                                                  
   882    19.6671    1232(35)          1227.1908         1205.3518                                                                  
   883    19.6839    1209(35)          1229.8877         1204.5133                                                                  
   884    19.7006    1321(36)          1233.2275         1203.6747                                                                  
   885    19.7173    1203(35)          1237.4603         1202.8362                                                                  
   886    19.7340    1261(36)          1242.6649         1201.9977                                                                  
   887    19.7507    1283(36)          1248.5403         1201.1592                                                                  
   888    19.7674    1239(35)          1254.4570         1200.3206                                                                  
   889    19.7841    1246(35)          1259.3391         1199.4821                                                                  
   890    19.8008    1302(36)          1262.0266         1198.6434                                                                  
   891    19.8175    1294(36)          1261.6455         1197.8049                                                                  
   892    19.8343    1274(36)          1257.8290         1196.9664                                                                  
   893    19.8510    1298(36)          1250.9026         1196.1279                                                                  
   894    19.8677    1224(35)          1241.7479         1195.2893                                                                  
   895    19.8844    1194(35)          1231.5535         1194.4508                                                                  
   896    19.9011    1191(35)          1221.5065         1193.6122                                                                  
   897    19.9178    1195(35)          1212.5416         1192.7737                                                                  
   898    19.9345    1234(35)          1205.2081         1191.9352                                                                  
   899    19.9512    1216(35)          1199.6826         1191.0966                                                                  
   900    19.9680    1246(35)          1195.8854         1190.2581                                                                  
   901    19.9847    1250(35)          1193.6157         1189.4194                                                                  
   902    20.0014    1169(34)          1192.6688         1188.5809                                                                  
   903    20.0181    1240(35)          1192.8922         1187.7424                                                                  
   904    20.0348    1183(34)          1194.1566         1186.9039                                                                  
   905    20.0515    1285(36)          1196.2913         1186.0653                                                                  
   906    20.0682    1184(34)          1199.0222         1185.2268                                                                  
   907    20.0849    1215(35)          1201.9377         1184.3882                                                                  
   908    20.1016    1242(35)          1204.5449         1183.5497                                                                  
   909    20.1184    1178(34)          1206.4191         1182.7112                                                                  
   910    20.1351    1227(35)          1207.3978         1181.8727                                                                  
   911    20.1518    1251(35)          1207.7622         1181.0341                                                                  
   912    20.1685    1193(35)          1208.3021         1180.1956                                                                  
   913    20.1852    1139(34)          1210.2220         1179.3569                                                                  
   914    20.2019    1237(35)          1214.8654         1178.5184                                                                  
   915    20.2186    1231(35)          1223.2869         1177.6799                                                                  
   916    20.2353    1238(35)          1235.7566         1176.8414                                                                  
   917    20.2520    1236(35)          1251.3997         1176.0028                                                                  
   918    20.2688    1265(36)          1268.1259         1175.1643                                                                  
   919    20.2855    1276(36)          1282.9989         1174.3257                                                                  
   920    20.3022    1315(36)          1292.9622         1173.4872                                                                  
   921    20.3189    1298(36)          1295.7684         1172.6487                                                                  
   922    20.3356    1270(36)          1290.6610         1171.8102                                                                  
   923    20.3523    1278(36)          1278.4863         1170.9716                                                                  
   924    20.3690    1269(36)          1261.3242         1170.1331                                                                  
   925    20.3857    1195(35)          1241.8666         1169.2944                                                                  
   926    20.4024    1244(35)          1222.7399         1168.4559                                                                  
   927    20.4192    1199(35)          1205.9570         1167.6174                                                                  
   928    20.4359    1148(34)          1192.6919         1166.7788                                                                  
   929    20.4526    1222(35)          1183.3633         1165.9403                                                                  
   930    20.4693    1177(34)          1177.8579         1165.1017                                                                  
   931    20.4860    1175(34)          1175.7898         1164.2632                                                                  
   932    20.5027    1108(33)          1176.6577         1163.4247                                                                  
   933    20.5194    1205(35)          1179.8798         1162.5862                                                                  
   934    20.5361    1071(33)          1184.7474         1161.7476                                                                  
   935    20.5528    1178(34)          1190.3589         1160.9091                                                                  
   936    20.5696    1181(34)          1195.6796         1160.0704                                                                  
   937    20.5863    1220(35)          1199.6864         1159.2319                                                                  
   938    20.6030    1166(34)          1201.6228         1158.3934                                                                  
   939    20.6197    1231(35)          1201.2350         1157.5549                                                                  
   940    20.6364    1232(35)          1198.8297         1156.7163                                                                  
   941    20.6531    1189(34)          1195.1494         1155.8778                                                                  
   942    20.6698    1065(33)          1191.1306         1155.0392                                                                  
   943    20.6865    1154(34)          1187.6084         1154.2007                                                                  
   944    20.7032    1166(34)          1185.0516         1153.3622                                                                  
   945    20.7200    1177(34)          1183.4481         1152.5237                                                                  
   946    20.7367    1205(35)          1182.3611         1151.6851                                                                  
   947    20.7534    1166(34)          1181.1449         1150.8466                                                                  
   948    20.7701    1208(35)          1179.2067         1150.0079                                                                  
   949    20.7868    1211(35)          1176.2231         1149.1694                                                                  
   950    20.8035    1123(34)          1172.2030         1148.3309                                                                  
   951    20.8202    1206(35)          1167.4425         1147.4924                                                                  
   952    20.8369    1194(35)          1162.3943         1146.6538                                                                  
   953    20.8536    1206(35)          1157.5256         1145.8153                                                                  
   954    20.8704    1160(34)          1153.1912         1144.9767                                                                  
   955    20.8871    1194(35)          1149.5798         1144.1382                                                                  
   956    20.9038    1109(33)          1146.7223         1143.2997                                                                  
   957    20.9205    1073(33)          1144.5314         1142.4611                                                                  
   958    20.9372    1139(34)          1142.8793         1141.6226                                                                  
   959    20.9539    1141(34)          1141.6348         1140.7839                                                                  
   960    20.9706    1135(34)          1140.7136         1139.9454                                                                  
   961    20.9873    1144(34)          1140.1388         1139.1409                                                                  
   962    21.0040    1112(33)          1140.0350         1138.4386                                                                  
   963    21.0208    1109(33)          1140.4121         1137.7362                                                                  
   964    21.0375    1166(34)          1141.3958         1137.0339                                                                  
   965    21.0542    1133(34)          1143.0626         1136.3317                                                                  
   966    21.0709    1158(34)          1145.3677         1135.6294                                                                  
   967    21.0876    1099(33)          1148.0931         1134.9270                                                                  
   968    21.1043    1116(33)          1150.8424         1134.2247                                                                  
   969    21.1210    1169(34)          1153.1039         1133.5223                                                                  
   970    21.1377    1121(33)          1154.3729         1132.8201                                                                  
   971    21.1545    1148(34)          1154.3021         1132.1178                                                                  
   972    21.1712    1177(34)          1152.8047         1131.4154                                                                  
   973    21.1879    1125(34)          1150.0604         1130.7131                                                                  
   974    21.2046    1216(35)          1146.4443         1130.0107                                                                  
   975    21.2213    1185(34)          1142.4259         1129.3085                                                                  
   976    21.2380    1119(33)          1138.4520         1128.6061                                                                  
   977    21.2547    1024(32)          1134.8613         1127.9038                                                                  
   978    21.2714    1176(34)          1131.8362         1127.2015                                                                  
   979    21.2881    1115(33)          1129.4194         1126.4993                                                                  
   980    21.3049    1190(34)          1127.5509         1125.7969                                                                  
   981    21.3216    1125(34)          1126.1158         1125.0946                                                                  
   982    21.3383    1076(33)          1124.9878         1124.3922                                                                  
   983    21.3550    1117(33)          1124.0579         1123.6899                                                                  
   984    21.3717    1194(35)          1123.2452         1122.9875                                                                  
   985    21.3884    1165(34)          1122.4993         1122.2853                                                                  
   986    21.4051    1102(33)          1121.7953         1121.5830                                                                  
   987    21.4218    1121(33)          1121.1245         1120.8807                                                                  
   988    21.4385    1143(34)          1120.5287         1120.1783                                                                  
   989    21.4553    1118(33)          1120.0685         1119.4761                                                                  
   990    21.4720    1113(33)          1119.8499         1118.7737                                                                  
   991    21.4887    1120(33)          1120.0778         1118.0714                                                                  
   992    21.5054    1088(33)          1121.0199         1117.3690                                                                  
   993    21.5221    1127(34)          1122.9888         1116.6667                                                                  
   994    21.5388    1176(34)          1126.2754         1115.9645                                                                  
   995    21.5555    1106(33)          1131.0145         1115.2622                                                                  
   996    21.5722    1161(34)          1137.0553         1114.5598                                                                  
   997    21.5889    1179(34)          1143.8667         1113.8574                                                                  
   998    21.6057    1148(34)          1150.5576         1113.1552                                                                  
   999    21.6224    1177(34)          1156.0343         1112.4529                                                                  
  1000    21.6391    1101(33)          1159.2679         1111.7505                                                                  
  1001    21.6558    1165(34)          1159.6104         1111.0482                                                                  
  1002    21.6725    1154(34)          1156.9769         1110.3459                                                                  
  1003    21.6892    1102(33)          1151.8551         1109.6436                                                                  
  1004    21.7059    1126(34)          1145.1370         1108.9413                                                                  
  1005    21.7226    1119(33)          1137.9078         1108.2389                                                                  
  1006    21.7393    1129(34)          1131.1812         1107.5366                                                                  
  1007    21.7561    1192(35)          1125.7014         1106.8344                                                                  
  1008    21.7728    1140(34)          1121.8390         1106.1321                                                                  
  1009    21.7895    1176(34)          1119.5768         1105.4297                                                                  
  1010    21.8062    1174(34)          1118.5958         1104.7274                                                                  
  1011    21.8229    1174(34)          1118.3981         1104.0250                                                                  
  1012    21.8396    1117(33)          1118.4470         1103.3228                                                                  
  1013    21.8563    1137(34)          1118.2905         1102.6204                                                                  
  1014    21.8730    1121(33)          1117.6332         1101.9181                                                                  
  1015    21.8897    1142(34)          1116.3477         1101.2158                                                                  
  1016    21.9065    1066(33)          1114.4535         1100.5135                                                                  
  1017    21.9232    1123(34)          1112.0826         1099.8112                                                                  
  1018    21.9399    1126(34)          1109.4321         1099.1089                                                                  
  1019    21.9566    1106(33)          1106.7079         1098.4065                                                                  
  1020    21.9733    1072(33)          1104.0872         1097.7042                                                                  
  1021    21.9900    1125(34)          1101.6956         1097.0018                                                                  
  1022    22.0067    1191(35)          1099.6035         1096.2996                                                                  
  1023    22.0234    1083(33)          1097.8271         1095.5973                                                                  
  1024    22.0401    1157(34)          1096.3440         1094.8950                                                                  
  1025    22.0569    1087(33)          1095.1066         1094.1926                                                                  
  1026    22.0736    1079(33)          1094.0590         1093.4902                                                                  
  1027    22.0903    1100(33)          1093.1472         1092.7880                                                                  
  1028    22.1070    1060(33)          1092.3256         1092.0856                                                                  
  1029    22.1237    1112(33)          1091.5597         1091.3833                                                                  
  1030    22.1404    1163(34)          1090.8260         1090.6810                                                                  
  1031    22.1571    1111(33)          1090.1105         1089.9788                                                                  
  1032    22.1738    1159(34)          1089.4049         1089.2764                                                                  
  1033    22.1905    1122(33)          1088.7065         1088.5741                                                                  
  1034    22.2073    1155(34)          1088.0144         1087.8717                                                                  
  1035    22.2240    1110(33)          1087.3293         1087.1694                                                                  
  1036    22.2407    1108(33)          1086.6523         1086.4670                                                                  
  1037    22.2574    1137(34)          1085.9823         1085.7648                                                                  
  1038    22.2741    1087(33)          1085.3213         1085.0625                                                                  
  1039    22.2908    1132(34)          1084.6653         1084.3602                                                                  
  1040    22.3075    1188(34)          1084.0100         1083.6578                                                                  
  1041    22.3242    1017(32)          1083.3547         1082.9556                                                                  
  1042    22.3410    1078(33)          1082.7014         1082.2532                                                                  
  1043    22.3577    1103(33)          1082.0662         1081.5509                                                                  
  1044    22.3744    1046(32)          1081.4897         1080.8486                                                                  
  1045    22.3911    1065(33)          1081.0575         1080.1462                                                                  
  1046    22.4078    1054(32)          1080.9248         1079.4440                                                                  
  1047    22.4245    1083(33)          1081.3419         1078.7417                                                                  
  1048    22.4412    1126(34)          1082.6628         1078.0393                                                                  
  1049    22.4579    1084(33)          1085.3123         1077.3370                                                                  
  1050    22.4746    1095(33)          1089.6920         1076.6346                                                                  
  1051    22.4914    1140(34)          1096.0214         1075.9324                                                                  
  1052    22.5081    1076(33)          1104.1599         1075.2301                                                                  
  1053    22.5248    1111(33)          1113.4728         1074.5278                                                                  
  1054    22.5415    1068(33)          1122.8483         1073.8254                                                                  
  1055    22.5582    1136(34)          1130.8438         1073.1230                                                                  
  1056    22.5749    1129(34)          1136.1764         1072.5222                                                                  
  1057    22.5916    1104(33)          1138.2805         1072.3958                                                                  
  1058    22.6083    1113(33)          1136.4900         1072.2692                                                                  
  1059    22.6250    1086(33)          1131.3732         1072.1426                                                                  
  1060    22.6418    1083(33)          1124.1039         1072.0161                                                                  
  1061    22.6585    1141(34)          1116.1782         1071.8895                                                                  
  1062    22.6752    1095(33)          1109.0835         1071.7629                                                                  
  1063    22.6919    1068(33)          1103.9807         1071.6365                                                                  
  1064    22.7086    1099(33)          1101.4689         1071.5099                                                                  
  1065    22.7253    1079(33)          1101.4954         1071.3833                                                                  
  1066    22.7420    1083(33)          1103.4102         1071.2568                                                                  
  1067    22.7587    1090(33)          1106.1554         1071.1302                                                                  
  1068    22.7754    1095(33)          1108.5632         1071.0037                                                                  
  1069    22.7922    1072(33)          1109.6528         1070.8772                                                                  
  1070    22.8089    1128(34)          1108.8945         1070.7506                                                                  
  1071    22.8256    1107(33)          1106.2848         1070.6240                                                                  
  1072    22.8423    1091(33)          1102.2778         1070.4976                                                                  
  1073    22.8590    1126(34)          1097.6190         1070.3710                                                                  
  1074    22.8757    1077(33)          1093.1675         1070.2445                                                                  
  1075    22.8924    1063(33)          1089.6874         1070.1179                                                                  
  1076    22.9091    1073(33)          1087.6864         1069.9913                                                                  
  1077    22.9258    1093(33)          1087.3158         1069.8649                                                                  
  1078    22.9426    1046(32)          1088.3540         1069.7383                                                                  
  1079    22.9593    1074(33)          1090.2665         1069.6117                                                                  
  1080    22.9760    1069(33)          1092.3401         1069.4852                                                                  
  1081    22.9927    1099(33)          1093.8573         1069.3586                                                                  
  1082    23.0094    1068(33)          1094.2815         1069.2321                                                                  
  1083    23.0261    1084(33)          1093.3763         1069.1056                                                                  
  1084    23.0428    1083(33)          1091.2151         1068.9790                                                                  
  1085    23.0595    1062(33)          1088.1010         1068.8524                                                                  
  1086    23.0762    1049(32)          1084.4661         1068.7260                                                                  
  1087    23.0930    1066(33)          1080.7611         1068.5994                                                                  
  1088    23.1097    1041(32)          1077.3557         1068.4728                                                                  
  1089    23.1264    1085(33)          1074.4856         1068.3463                                                                  
  1090    23.1431    1079(33)          1072.2430         1068.2197                                                                  
  1091    23.1598    1075(33)          1070.6062         1068.0931                                                                  
  1092    23.1765    1091(33)          1069.4794         1067.9667                                                                  
  1093    23.1932    1063(33)          1068.7374         1067.8401                                                                  
  1094    23.2099    1074(33)          1068.2585         1067.7135                                                                  
  1095    23.2266    987(31)          1067.9445         1067.5870                                                                   
  1096    23.2434    1069(33)          1067.7245         1067.4604                                                                  
  1097    23.2601    1061(33)          1067.5548         1067.3340                                                                  
  1098    23.2768    1026(32)          1067.4155         1067.2074                                                                  
  1099    23.2935    1145(34)          1067.2830         1067.0808                                                                  
  1100    23.3102    1092(33)          1067.1565         1066.9542                                                                  
  1101    23.3269    1083(33)          1067.0471         1066.8278                                                                  
  1102    23.3436    1073(33)          1066.9298         1066.7012                                                                  
  1103    23.3603    1016(32)          1066.8124         1066.5747                                                                  
  1104    23.3771    1062(33)          1066.6975         1066.4481                                                                  
  1105    23.3938    1052(32)          1066.5927         1066.3215                                                                  
  1106    23.4105    1060(33)          1066.4865         1066.1951                                                                  
  1107    23.4272    1045(32)          1066.3898         1066.0685                                                                  
  1108    23.4439    1061(33)          1066.3142         1065.9419                                                                  
  1109    23.4606    1077(33)          1066.2869         1065.8154                                                                  
  1110    23.4773    1125(34)          1066.3678         1065.6888                                                                  
  1111    23.4940    1094(33)          1066.6713         1065.5623                                                                  
  1112    23.5107    1126(34)          1067.4163         1065.4358                                                                  
  1113    23.5275    1080(33)          1068.9357         1065.3092                                                                  
  1114    23.5442    1037(32)          1071.7183         1065.1826                                                                  
  1115    23.5609    1096(33)          1076.3562         1065.0562                                                                  
  1116    23.5776    1190(34)          1083.4230         1064.9296                                                                  
  1117    23.5943    1073(33)          1093.2664         1064.8030                                                                  
  1118    23.6110    1149(34)          1105.7826         1064.6765                                                                  
  1119    23.6277    1150(34)          1120.2480         1064.5499                                                                  
  1120    23.6444    1134(34)          1135.3112         1064.4233                                                                  
  1121    23.6611    1139(34)          1149.2292         1064.2969                                                                  
  1122    23.6779    1163(34)          1160.2715         1064.1703                                                                  
  1123    23.6946    1162(34)          1167.2225         1064.0437                                                                  
  1124    23.7113    1181(34)          1169.6992         1063.9172                                                                  
  1125    23.7280    1165(34)          1168.1409         1063.7906                                                                  
  1126    23.7447    1126(34)          1163.4850         1063.6642                                                                  
  1127    23.7614    1160(34)          1156.8600         1063.5376                                                                  
  1128    23.7781    1150(34)          1149.3143         1063.4110                                                                  
  1129    23.7948    1118(33)          1141.6018         1063.2845                                                                  
  1130    23.8115    1089(33)          1134.1523         1063.1580                                                                  
  1131    23.8283    1119(33)          1127.1268         1063.0314                                                                  
  1132    23.8450    1106(33)          1120.4913         1062.9049                                                                  
  1133    23.8617    1082(33)          1114.0947         1062.7783                                                                  
  1134    23.8784    1069(33)          1107.8051         1062.6517                                                                  
  1135    23.8951    1086(33)          1101.5177         1062.5253                                                                  
  1136    23.9118    1103(33)          1095.2815         1062.3987                                                                  
  1137    23.9285    1046(32)          1089.2609         1062.2721                                                                  
  1138    23.9452    1095(33)          1083.6240         1062.1456                                                                  
  1139    23.9619    1075(33)          1078.5607         1062.0190                                                                  
  1140    23.9787    1061(33)          1074.1923         1061.8925                                                                  
  1141    23.9954    1057(33)          1070.5980         1061.7660                                                                  
  1142    24.0121    1120(33)          1067.7727         1061.6394                                                                  
  1143    24.0288    1119(33)          1065.6534         1061.5128                                                                  
  1144    24.0455    977(31)          1064.1345         1061.3864                                                                   
  1145    24.0622    1052(32)          1063.0913         1061.2598                                                                  
  1146    24.0789    1080(33)          1062.3989         1061.1332                                                                  
  1147    24.0956    1136(34)          1061.9476         1061.0067                                                                  
  1148    24.1123    1042(32)          1061.8021         1061.0310                                                                  
  1149    24.1291    1055(32)          1062.8696         1062.1769                                                                  
  1150    24.1458    1048(32)          1063.9938         1063.3230                                                                  
  1151    24.1625    1068(33)          1065.1516         1064.4689                                                                  
  1152    24.1792    1068(33)          1066.3369         1065.6149                                                                  
  1153    24.1959    1121(33)          1067.5570         1066.7607                                                                  
  1154    24.2126    1112(33)          1068.8457         1067.9067                                                                  
  1155    24.2293    1039(32)          1070.2753         1069.0526                                                                  
  1156    24.2460    1090(33)          1071.9951         1070.1987                                                                  
  1157    24.2627    1113(33)          1074.2787         1071.3446                                                                  
  1158    24.2795    1099(33)          1077.5864         1072.4906                                                                  
  1159    24.2962    1057(33)          1082.6154         1073.6365                                                                  
  1160    24.3129    1094(33)          1090.3134         1074.7825                                                                  
  1161    24.3296    1065(33)          1101.7985         1075.9283                                                                  
  1162    24.3463    1066(33)          1118.1697         1077.0743                                                                  
  1163    24.3630    1219(35)          1140.1704         1078.2203                                                                  
  1164    24.3797    1159(34)          1167.8032         1079.3663                                                                  
  1165    24.3964    1149(34)          1199.9497         1080.5122                                                                  
  1166    24.4131    1156(34)          1234.2371         1081.6582                                                                  
  1167    24.4299    1258(35)          1267.2086         1082.8041                                                                  
  1168    24.4466    1303(36)          1294.9502         1083.9501                                                                  
  1169    24.4633    1310(36)          1313.8961         1085.0962                                                                  
  1170    24.4800    1311(36)          1321.7075         1086.2421                                                                  
  1171    24.4967    1289(36)          1317.9650         1087.3881                                                                  
  1172    24.5134    1318(36)          1304.3193         1088.5339                                                                  
  1173    24.5301    1317(36)          1283.9755         1089.6799                                                                  
  1174    24.5468    1303(36)          1260.8787         1090.8258                                                                  
  1175    24.5636    1289(36)          1238.8662         1091.9718                                                                  
  1176    24.5803    1221(35)          1220.9177         1093.1178                                                                  
  1177    24.5970    1213(35)          1208.5800         1094.2638                                                                  
  1178    24.6137    1250(35)          1201.8242         1095.4097                                                                  
  1179    24.6304    1221(35)          1199.2899         1096.5557                                                                  
  1180    24.6471    1273(36)          1198.8363         1097.7015                                                                  
  1181    24.6638    1251(35)          1198.2008         1098.8475                                                                  
  1182    24.6805    1226(35)          1195.6183         1099.9935                                                                  
  1183    24.6972    1285(36)          1190.2375         1101.1395                                                                  
  1184    24.7140    1144(34)          1182.0698         1102.2854                                                                  
  1185    24.7307    1233(35)          1171.9031         1103.4314                                                                  
  1186    24.7474    1205(35)          1160.9055         1104.5773                                                                  
  1187    24.7641    1120(33)          1150.3422         1105.7233                                                                  
  1188    24.7808    1117(33)          1141.2673         1106.8691                                                                  
  1189    24.7975    1140(34)          1134.4366         1108.0153                                                                  
  1190    24.8142    1126(34)          1130.2643         1109.1611                                                                  
  1191    24.8309    1169(34)          1128.9557         1110.3071                                                                  
  1192    24.8476    1138(34)          1130.7698         1111.4530                                                                  
  1193    24.8644    1136(34)          1136.2562         1112.5990                                                                  
  1194    24.8811    1069(33)          1146.8357         1113.7449                                                                  
  1195    24.8978    1186(34)          1163.6327         1114.8910                                                                  
  1196    24.9145    1237(35)          1189.0985         1116.0370                                                                  
  1197    24.9312    1256(35)          1225.1594         1117.1829                                                                  
  1198    24.9479    1316(36)          1272.7478         1118.3289                                                                  
  1199    24.9646    1307(36)          1330.2549         1119.4747                                                                  
  1200    24.9813    1405(37)          1393.8442         1120.6207                                                                  
  1201    24.9980    1418(38)          1456.9473         1121.7667                                                                  
  1202    25.0148    1573(40)          1511.4857         1122.9127                                                                  
  1203    25.0315    1597(40)          1549.6670         1124.0586                                                                  
  1204    25.0482    1619(40)          1566.0295         1125.2046                                                                  
  1205    25.0649    1567(40)          1558.7329         1126.3505                                                                  
  1206    25.0816    1485(39)          1529.7183         1127.4965                                                                  
  1207    25.0983    1467(38)          1483.9166         1128.6423                                                                  
  1208    25.1150    1394(37)          1427.9709         1129.7885                                                                  
  1209    25.1317    1304(36)          1368.8849         1130.9343                                                                  
  1210    25.1484    1239(35)          1312.7407         1132.0803                                                                  
  1211    25.1652    1211(35)          1263.9127         1133.2262                                                                  
  1212    25.1819    1166(34)          1224.7130         1134.3722                                                                  
  1213    25.1986    1193(35)          1195.6057         1135.5181                                                                  
  1214    25.2153    1100(33)          1175.6442         1136.6642                                                                  
  1215    25.2320    1111(33)          1163.0872         1137.8101                                                                  
  1216    25.2487    1104(33)          1155.9321         1138.9561                                                                  
  1217    25.2654    1133(34)          1152.3381         1140.1019                                                                  
  1218    25.2821    1198(35)          1150.8499         1141.2479                                                                  
  1219    25.2988    1103(33)          1150.4661         1142.3938                                                                  
  1220    25.3156    1084(33)          1150.5851         1143.5398                                                                  
  1221    25.3323    1016(32)          1150.8998         1144.6858                                                                  
  1222    25.3490    1089(33)          1151.2900         1145.8318                                                                  
  1223    25.3657    1067(33)          1151.7378         1146.9777                                                                  
  1224    25.3824    1087(33)          1152.2650         1148.1237                                                                  
  1225    25.3991    1030(32)          1152.8988         1149.2697                                                                  
  1226    25.4158    1091(33)          1153.6547         1150.4155                                                                  
  1227    25.4325    1041(32)          1153.2961         1150.3243                                                                  
  1228    25.4492    1154(34)          1152.3661         1149.5509                                                                  
  1229    25.4660    1101(33)          1151.5281         1148.7775                                                                  
  1230    25.4827    1078(33)          1150.7625         1148.0040                                                                  
  1231    25.4994    1059(33)          1150.0520         1147.2306                                                                  
  1232    25.5161    1093(33)          1149.3846         1146.4573                                                                  
  1233    25.5328    1104(33)          1148.7527         1145.6837                                                                  
  1234    25.5495    1128(34)          1148.1534         1144.9104                                                                  
  1235    25.5662    1034(32)          1147.5858         1144.1368                                                                  
  1236    25.5829    1108(33)          1147.0472         1143.3635                                                                  
  1237    25.5996    1068(33)          1146.5554         1142.5901                                                                  
  1238    25.6164    1123(34)          1146.1234         1141.8167                                                                  
  1239    25.6331    1109(33)          1145.7850         1141.0432                                                                  
  1240    25.6498    1102(33)          1145.6720         1140.2698                                                                  
  1241    25.6665    1123(34)          1146.0013         1139.4963                                                                  
  1242    25.6832    1144(34)          1147.1974         1138.7230                                                                  
  1243    25.6999    1043(32)          1149.9866         1137.9495                                                                  
  1244    25.7166    1181(34)          1155.5067         1137.1761                                                                  
  1245    25.7333    1137(34)          1165.5961         1136.4027                                                                  
  1246    25.7500    1205(35)          1181.3694         1135.6293                                                                  
  1247    25.7668    1221(35)          1204.7483         1134.8558                                                                  
  1248    25.7835    1305(36)          1236.6973         1134.0824                                                                  
  1249    25.8002    1177(34)          1276.9418         1133.3090                                                                  
  1250    25.8169    1303(36)          1323.5615         1132.5355                                                                  
  1251    25.8336    1403(37)          1374.3282         1131.7621                                                                  
  1252    25.8503    1441(38)          1427.7296         1130.9888                                                                  
  1253    25.8670    1515(39)          1485.4448         1130.2152                                                                  
  1254    25.8837    1549(39)          1555.2223         1129.4418                                                                  
  1255    25.9005    1612(40)          1652.4209         1128.6685                                                                  
  1256    25.9172    1770(42)          1799.0696         1127.8949                                                                  
  1257    25.9339    1816(43)          2019.3413         1127.1216                                                                  
  1258    25.9506    2207(47)          2332.2578         1126.3481                                                                  
  1259    25.9673    2531(50)          2742.3757         1125.5747                                                                  
  1260    25.9840    3168(56)          3232.2336         1124.8013                                                                  
  1261    26.0007    3934(63)          3759.0413         1124.0278                                                                  
  1262    26.0174    4350(66)          4259.7710         1123.2544                                                                  
  1263    26.0341    4902(70)          4662.9878         1122.4810                                                                  
  1264    26.0509    5032(71)          4906.9102         1121.7075                                                                  
  1265    26.0676    5224(72)          4955.9512         1120.9342                                                                  
  1266    26.0843    4798(69)          4808.1953         1120.1606                                                                  
  1267    26.1010    4522(67)          4490.9038         1119.3873                                                                  
  1268    26.1177    3972(63)          4050.9053         1118.6139                                                                  
  1269    26.1344    3417(58)          3545.0137         1117.8405                                                                  
  1270    26.1511    2964(54)          3029.3521         1117.0670                                                                  
  1271    26.1678    2503(50)          2550.3735         1116.2936                                                                  
  1272    26.1845    2015(45)          2138.9238         1115.5201                                                                  
  1273    26.2013    1786(42)          1809.8469         1114.7467                                                                  
  1274    26.2180    1583(40)          1563.6738         1113.9733                                                                  
  1275    26.2347    1456(38)          1391.1699         1113.2000                                                                  
  1276    26.2514    1335(37)          1277.6287         1112.4264                                                                  
  1277    26.2681    1275(36)          1207.3003         1111.6531                                                                  
  1278    26.2848    1228(35)          1166.0614         1110.8796                                                                  
  1279    26.3015    1188(34)          1142.9919         1110.1062                                                                  
  1280    26.3182    1218(35)          1130.4625         1109.3328                                                                  
  1281    26.3349    1208(35)          1123.6626         1108.5593                                                                  
  1282    26.3517    1244(35)          1119.8016         1107.7859                                                                  
  1283    26.3684    1176(34)          1117.3854         1107.0125                                                                  
  1284    26.3851    1177(34)          1115.6671         1106.2390                                                                  
  1285    26.4018    1205(35)          1114.2952         1105.4656                                                                  
  1286    26.4185    1186(34)          1113.1119         1104.6921                                                                  
  1287    26.4352    1195(35)          1112.3226         1103.9187                                                                  
  1288    26.4519    1188(34)          1111.3562         1103.1454                                                                  
  1289    26.4686    1153(34)          1110.4648         1102.3718                                                                  
  1290    26.4853    1174(34)          1109.6426         1101.5985                                                                  
  1291    26.5021    1151(34)          1109.0217         1100.8251                                                                  
  1292    26.5188    1201(35)          1108.3384         1100.0516                                                                  
  1293    26.5355    1185(34)          1107.7172         1099.2782                                                                  
  1294    26.5522    1148(34)          1107.1659         1098.5048                                                                  
  1295    26.5689    1124(34)          1106.6899         1097.7313                                                                  
  1296    26.5856    1162(34)          1106.3010         1096.9579                                                                  
  1297    26.6023    1204(35)          1106.0106         1096.1844                                                                  
  1298    26.6190    1165(34)          1105.8535         1095.4111                                                                  
  1299    26.6357    1213(35)          1105.9114         1094.6376                                                                  
  1300    26.6525    1106(33)          1106.3503         1093.8643                                                                  
  1301    26.6692    1261(36)          1107.6091         1093.0908                                                                  
  1302    26.6859    1228(35)          1110.6849         1092.3174                                                                  
  1303    26.7026    1269(36)          1117.6462         1091.5439                                                                  
  1304    26.7193    1234(35)          1132.5928         1090.7705                                                                  
  1305    26.7360    1274(36)          1162.8634         1089.9971                                                                  
  1306    26.7527    1405(37)          1220.3287         1089.2236                                                                  
  1307    26.7694    1537(39)          1322.2117         1088.4502                                                                  
  1308    26.7861    1705(41)          1490.2688         1087.6769                                                                  
  1309    26.8029    1870(43)          1747.6941         1086.9033                                                                  
  1310    26.8196    2125(46)          2112.8057         1086.1299                                                                  
  1311    26.8363    2448(49)          2590.8467         1085.3566                                                                  
  1312    26.8530    3038(55)          3166.3835         1084.5830                                                                  
  1313    26.8697    3606(60)          3798.8306         1083.8097                                                                  
  1314    26.8864    4309(66)          4425.3906         1083.0363                                                                  
  1315    26.9031    4949(70)          4970.4087         1082.2628                                                                  
  1316    26.9198    5518(74)          5362.1392         1081.4894                                                                  
  1317    26.9366    5653(75)          5550.0381         1080.7159                                                                  
  1318    26.9533    5674(75)          5516.0439         1079.9425                                                                  
  1319    26.9700    5316(73)          5274.3115         1079.1692                                                                  
  1320    26.9867    4859(70)          4864.4893         1078.3956                                                                  
  1321    27.0034    4316(66)          4342.8467         1077.6223                                                                  
  1322    27.0201    3744(61)          3771.2383         1076.8488                                                                  
  1323    27.0368    3174(56)          3206.7185         1076.0754                                                                  
  1324    27.0535    2684(52)          2693.2651         1075.3020                                                                  
  1325    27.0702    2224(47)          2258.7400         1074.5286                                                                  
  1326    27.0870    1811(43)          1914.3234         1073.7551                                                                  
  1327    27.1037    1603(40)          1657.6975         1072.9817                                                                  
  1328    27.1204    1545(39)          1477.1290         1072.2083                                                                  
  1329    27.1371    1356(37)          1356.4539         1071.4348                                                                  
  1330    27.1538    1340(37)          1278.7861         1070.6614                                                                  
  1331    27.1705    1282(36)          1229.4302         1069.8881                                                                  
  1332    27.1872    1158(34)          1197.1725         1069.1145                                                                  
  1333    27.2039    1148(34)          1174.5779         1068.3412                                                                  
  1334    27.2206    1218(35)          1157.1071         1067.5677                                                                  
  1335    27.2374    1090(33)          1143.4800         1066.7943                                                                  
  1336    27.2541    1148(34)          1132.9497         1066.0209                                                                  
  1337    27.2708    1141(34)          1125.8717         1065.2474                                                                  
  1338    27.2875    1150(34)          1122.8242         1064.4740                                                                  
  1339    27.3042    1154(34)          1124.0834         1063.7006                                                                  
  1340    27.3209    1156(34)          1129.8132         1062.9271                                                                  
  1341    27.3376    1123(34)          1139.1006         1062.1537                                                                  
  1342    27.3543    1135(34)          1150.5505         1061.3804                                                                  
  1343    27.3710    1175(34)          1162.4735         1060.6068                                                                  
  1344    27.3878    1185(34)          1173.4062         1059.8335                                                                  
  1345    27.4045    1210(35)          1183.0135         1059.0599                                                                  
  1346    27.4212    1167(34)          1193.0851         1058.2866                                                                  
  1347    27.4379    1262(36)          1208.5422         1057.5132                                                                  
  1348    27.4546    1365(37)          1238.2135         1056.7397                                                                  
  1349    27.4713    1382(37)          1295.2072         1055.9663                                                                  
  1350    27.4880    1535(39)          1396.2485         1055.1929                                                                  
  1351    27.5047    1608(40)          1559.3752         1054.4194                                                                  
  1352    27.5214    1817(43)          1799.3516         1053.6461                                                                  
  1353    27.5382    2124(46)          2121.8096         1052.8726                                                                  
  1354    27.5549    2499(50)          2517.1772         1052.0992                                                                  
  1355    27.5716    2809(53)          2957.7234         1051.3257                                                                  
  1356    27.5883    3228(57)          3398.6997         1050.5524                                                                  
  1357    27.6050    3756(61)          3785.7021         1049.7789                                                                  
  1358    27.6217    4032(63)          4065.8530         1049.0055                                                                  
  1359    27.6384    4185(65)          4201.4541         1048.2321                                                                  
  1360    27.6551    4220(65)          4179.0205         1047.4586                                                                  
  1361    27.6718    4076(64)          4009.6455         1046.6852                                                                  
  1362    27.6886    3789(62)          3722.5229         1045.9119                                                                  
  1363    27.7053    3317(58)          3357.2993         1045.1383                                                                  
  1364    27.7220    2948(54)          2957.6045         1044.3650                                                                  
  1365    27.7387    2473(50)          2564.1265         1043.5916                                                                  
  1366    27.7554    2184(47)          2209.1824         1042.8181                                                                  
  1367    27.7721    1922(44)          1913.2672         1042.0447                                                                  
  1368    27.7888    1604(40)          1685.0208         1041.2712                                                                  
  1369    27.8055    1508(39)          1522.7015         1040.4978                                                                  
  1370    27.8222    1514(39)          1416.9879         1039.7244                                                                  
  1371    27.8390    1415(38)          1354.4592         1038.9509                                                                  
  1372    27.8557    1332(36)          1320.6948         1038.1775                                                                  
  1373    27.8724    1338(37)          1302.7520         1037.4041                                                                  
  1374    27.8891    1306(36)          1290.5571         1036.6306                                                                  
  1375    27.9058    1315(36)          1277.5559         1035.8573                                                                  
  1376    27.9225    1231(35)          1260.6631         1035.0837                                                                  
  1377    27.9392    1187(34)          1239.6134         1034.3104                                                                  
  1378    27.9559    1265(36)          1215.9404         1033.5369                                                                  
  1379    27.9726    1173(34)          1192.0653         1032.7635                                                                  
  1380    27.9894    1163(34)          1170.5488         1031.9901                                                                  
  1381    28.0061    1159(34)          1153.5209         1031.2167                                                                  
  1382    28.0228    1193(35)          1142.2122         1030.4432                                                                  
  1383    28.0395    1176(34)          1136.7889         1029.6698                                                                  
  1384    28.0562    1144(34)          1136.4380         1028.8964                                                                  
  1385    28.0729    1149(34)          1139.7059         1028.1230                                                                  
  1386    28.0896    1098(33)          1144.9767         1027.3495                                                                  
  1387    28.1063    1137(34)          1150.9540         1026.5762                                                                  
  1388    28.1231    1090(33)          1156.6818         1025.8027                                                                  
  1389    28.1398    1170(34)          1162.7141         1025.0293                                                                  
  1390    28.1565    1203(35)          1168.9077         1024.2559                                                                  
  1391    28.1732    1165(34)          1175.5272         1023.4824                                                                  
  1392    28.1899    1173(34)          1182.1489         1022.7090                                                                  
  1393    28.2066    1217(35)          1188.3914         1021.9356                                                                  
  1394    28.2233    1183(34)          1192.9775         1021.1621                                                                  
  1395    28.2400    1231(35)          1194.7609         1020.3887                                                                  
  1396    28.2567    1219(35)          1192.7260         1019.6153                                                                  
  1397    28.2735    1185(34)          1186.3708         1018.8418                                                                  
  1398    28.2902    1153(34)          1175.8630         1018.0684                                                                  
  1399    28.3069    1158(34)          1162.0933         1017.2950                                                                  
  1400    28.3236    1190(34)          1146.4589         1016.5216                                                                  
  1401    28.3403    1129(34)          1130.6277         1015.7481                                                                  
  1402    28.3570    1166(34)          1116.2902         1014.9747                                                                  
  1403    28.3737    1165(34)          1104.9338         1014.2013                                                                  
  1404    28.3904    1103(33)          1097.6888         1013.4279                                                                  
  1405    28.4071    1098(33)          1095.0930         1012.6544                                                                  
  1406    28.4239    1093(33)          1097.0322         1011.8810                                                                  
  1407    28.4406    1088(33)          1102.6760         1011.1075                                                                  
  1408    28.4573    1049(32)          1110.5305         1010.3342                                                                  
  1409    28.4740    1109(33)          1118.6606         1009.5607                                                                  
  1410    28.4907    1068(33)          1125.0293         1008.7874                                                                  
  1411    28.5074    1063(33)          1127.9354         1008.0139                                                                  
  1412    28.5241    1136(34)          1126.3757         1007.2405                                                                  
  1413    28.5408    1166(34)          1120.2000         1006.4670                                                                  
  1414    28.5575    1035(32)          1109.9994         1005.6936                                                                  
  1415    28.5743    1152(34)          1096.8467         1004.9202                                                                  
  1416    28.5910    1089(33)          1082.0553         1004.1468                                                                  
  1417    28.6077    1074(33)          1066.9501         1003.3733                                                                  
  1418    28.6244    1020(32)          1052.7289         1002.5999                                                                  
  1419    28.6411    1018(32)          1040.2594         1001.8265                                                                  
  1420    28.6578    1055(32)          1030.0746         1001.0531                                                                  
  1421    28.6745    1086(33)          1022.3779         1000.2796                                                                  
  1422    28.6912    985(31)          1017.1511          999.5062                                                                   
  1423    28.7079    984(31)          1014.2222          998.7328                                                                   
  1424    28.7247    985(31)          1013.3853          997.9593                                                                   
  1425    28.7414    1036(32)          1014.4358          997.1859                                                                  
  1426    28.7581    1033(32)          1017.1779          996.4125                                                                  
  1427    28.7748    1059(33)          1021.3571          995.6390                                                                  
  1428    28.7915    1073(33)          1026.5984          994.8656                                                                  
  1429    28.8082    1030(32)          1032.3654          994.0922                                                                  
  1430    28.8249    989(31)          1037.9819          993.3187                                                                   
  1431    28.8416    1026(32)          1042.4513          992.5453                                                                  
  1432    28.8583    990(31)          1045.6412          991.7719                                                                   
  1433    28.8751    995(32)          1046.8265          990.9985                                                                   
  1434    28.8918    1005(32)          1045.9224          990.2250                                                                  
  1435    28.9085    998(32)          1042.7341          989.4517                                                                   
  1436    28.9252    999(32)          1037.8954          988.6782                                                                   
  1437    28.9419    1051(32)          1031.7262          987.9048                                                                  
  1438    28.9586    1033(32)          1024.7565          987.1313                                                                  
  1439    28.9753    1012(32)          1017.5792          986.3580                                                                  
  1440    28.9920    1056(32)          1010.5909          985.5845                                                                  
  1441    29.0087    963(31)          1004.1997          984.8112                                                                   
  1442    29.0255    968(31)           998.6373          984.0377                                                                   
  1443    29.0422    995(32)           994.0123          983.2643                                                                   
  1444    29.0589    987(31)           990.3438          982.4763                                                                   
  1445    29.0756    986(31)           987.4432          981.5314                                                                   
  1446    29.0923    984(31)           985.4037          980.5864                                                                   
  1447    29.1090    973(31)           984.1463          979.6415                                                                   
  1448    29.1257    937(31)           983.6526          978.6965                                                                   
  1449    29.1424    921(30)           983.8494          977.7516                                                                   
  1450    29.1591    938(31)           984.6747          976.8066                                                                   
  1451    29.1759    987(31)           986.0444          975.8618                                                                   
  1452    29.1926    916(30)           987.9000          974.9167                                                                   
  1453    29.2093    1019(32)           990.2075          973.9718                                                                  
  1454    29.2260    925(30)           993.0298          973.0269                                                                   
  1455    29.2427    998(32)           996.5723          972.0819                                                                   
  1456    29.2594    1016(32)          1001.1552          971.1370                                                                  
  1457    29.2761    947(31)          1007.1332          970.1920                                                                   
  1458    29.2928    952(31)          1014.7175          969.2471                                                                   
  1459    29.3096    998(32)          1023.7975          968.3022                                                                   
  1460    29.3263    998(32)          1033.8655          967.3573                                                                   
  1461    29.3430    1061(33)          1044.0114          966.4123                                                                  
  1462    29.3597    1029(32)          1053.1350          965.4674                                                                  
  1463    29.3764    1093(33)          1060.1676          964.5224                                                                  
  1464    29.3931    1089(33)          1064.5061          963.5775                                                                  
  1465    29.4098    1089(33)          1066.2017          962.6326                                                                  
  1466    29.4265    1052(32)          1065.9218          961.6877                                                                  
  1467    29.4432    1070(33)          1064.6962          960.7427                                                                  
  1468    29.4600    1033(32)          1063.5648          959.7978                                                                  
  1469    29.4767    1123(34)          1063.2898          958.8528                                                                  
  1470    29.4934    1022(32)          1064.1318          957.9080                                                                  
  1471    29.5101    1023(32)          1065.7865          956.9630                                                                  
  1472    29.5268    1046(32)          1067.4382          956.0181                                                                  
  1473    29.5435    1053(32)          1068.0242          955.0731                                                                  
  1474    29.5602    1011(32)          1066.5825          954.1282                                                                  
  1475    29.5769    1093(33)          1062.5446          953.1832                                                                  
  1476    29.5936    1086(33)          1055.7974          952.2383                                                                  
  1477    29.6104    1026(32)          1046.6077          951.2933                                                                  
  1478    29.6271    1030(32)          1035.5061          950.3484                                                                  
  1479    29.6438    992(31)          1023.1951          949.4034                                                                   
  1480    29.6605    1016(32)          1010.5066          948.4586                                                                  
  1481    29.6772    1041(32)           998.0955          947.5135                                                                  
  1482    29.6939    960(31)           986.6279          946.5686                                                                   
  1483    29.7106    968(31)           976.5255          945.6237                                                                   
  1484    29.7273    979(31)           968.0128          944.6787                                                                   
  1485    29.7440    933(31)           961.1050          943.7338                                                                   
  1486    29.7608    876(30)           955.6625          942.7888                                                                   
  1487    29.7775    888(30)           951.5417          941.8440                                                                   
  1488    29.7942    984(31)           948.5648          940.8990                                                                   
  1489    29.8109    977(31)           946.6112          939.9541                                                                   
  1490    29.8276    937(31)           945.5964          939.0091                                                                   
  1491    29.8443    971(31)           945.5742          938.0642                                                                   
  1492    29.8610    950(31)           946.5343          937.1193                                                                   
  1493    29.8777    923(30)           948.4865          936.1744                                                                   
  1494    29.8944    906(30)           951.5901          935.2294                                                                   
  1495    29.9112    945(31)           956.0640          934.2845                                                                   
  1496    29.9279    974(31)           962.4553          933.3395                                                                   
  1497    29.9446    980(31)           971.6788          932.3946                                                                   
  1498    29.9613    978(31)           985.6215          931.4496                                                                   
  1499    29.9780    996(32)          1007.1422          930.5048                                                                   
  1500    29.9947    977(31)          1040.0856          929.5598                                                                   
  1501    30.0114    1092(33)          1088.7357          928.6149                                                                  
  1502    30.0281    1119(33)          1156.7722          927.6699                                                                  
  1503    30.0448    1193(35)          1245.7566          926.7250                                                                  
  1504    30.0616    1342(37)          1353.7457          925.7800                                                                  
  1505    30.0783    1424(38)          1474.3195          924.8351                                                                  
  1506    30.0950    1506(39)          1596.8340          923.8901                                                                  
  1507    30.1117    1742(42)          1707.7656          922.9453                                                                  
  1508    30.1284    1928(44)          1793.3516          922.0002                                                                  
  1509    30.1451    1808(43)          1842.6877          921.0553                                                                  
  1510    30.1618    1876(43)          1850.4199          920.1104                                                                  
  1511    30.1785    1858(43)          1817.4541          919.1654                                                                  
  1512    30.1952    1747(42)          1749.6072          918.2205                                                                  
  1513    30.2120    1664(41)          1655.7660          917.2755                                                                  
  1514    30.2287    1486(39)          1546.2776          916.3306                                                                  
  1515    30.2454    1443(38)          1431.5737          915.3856                                                                  
  1516    30.2621    1343(37)          1320.9966          914.4408                                                                  
  1517    30.2788    1259(35)          1221.6421          913.4958                                                                  
  1518    30.2955    1110(33)          1138.0322          912.5509                                                                  
  1519    30.3122    1095(33)          1072.0261          911.6059                                                                  
  1520    30.3289    1055(32)          1023.2803          910.6610                                                                  
  1521    30.3456    942(31)           989.7990          909.7161                                                                   
  1522    30.3624    961(31)           968.7005          908.7712                                                                   
  1523    30.3791    985(31)           956.8696          907.8262                                                                   
  1524    30.3958    977(31)           951.5020          906.8813                                                                   
  1525    30.4125    967(31)           950.3989          905.9363                                                                   
  1526    30.4292    962(31)           952.0381          904.9914                                                                   
  1527    30.4459    956(31)           955.5945          904.0464                                                                   
  1528    30.4626    1039(32)           960.8268          903.1016                                                                  
  1529    30.4793    982(31)           967.9646          902.1566                                                                   
  1530    30.4960    996(32)           977.5160          901.2117                                                                   
  1531    30.5128    994(32)           989.9572          900.2667                                                                   
  1532    30.5295    1024(32)          1005.4053          899.3218                                                                  
  1533    30.5462    962(31)          1023.3099          898.3768                                                                   
  1534    30.5629    1073(33)          1042.3081          897.4319                                                                  
  1535    30.5796    1100(33)          1060.3523          896.4869                                                                  
  1536    30.5963    1045(32)          1075.0409          895.5421                                                                  
  1537    30.6130    1057(33)          1084.2283          894.5970                                                                  
  1538    30.6297    1106(33)          1086.3322          893.6521                                                                  
  1539    30.6465    1054(32)          1081.0892          892.7072                                                                  
  1540    30.6632    1078(33)          1069.2159          891.7622                                                                  
  1541    30.6799    1042(32)          1052.2207          890.8173                                                                  
  1542    30.6966    983(31)          1032.1493          889.8723                                                                   
  1543    30.7133    1015(32)          1011.3524          888.9274                                                                  
  1544    30.7300    1020(32)           992.5400          887.9824                                                                  
  1545    30.7467    994(32)           978.6167          887.0376                                                                   
  1546    30.7634    1005(32)           972.6203          886.0926                                                                  
  1547    30.7801    968(31)           977.6249          885.1477                                                                   
  1548    30.7969    995(32)           996.5056          884.2027                                                                   
  1549    30.8136    1051(32)          1031.4124          883.2578                                                                  
  1550    30.8303    1108(33)          1083.3099          882.3129                                                                  
  1551    30.8470    1166(34)          1151.2910          881.3680                                                                  
  1552    30.8637    1304(36)          1232.3070          880.4230                                                                  
  1553    30.8804    1290(36)          1321.2358          879.4781                                                                  
  1554    30.8971    1449(38)          1411.5872          878.5331                                                                  
  1555    30.9138    1475(38)          1496.7507          877.5882                                                                  
  1556    30.9305    1499(39)          1571.6545          876.6432                                                                  
  1557    30.9473    1640(40)          1634.1598          875.6984                                                                  
  1558    30.9640    1633(40)          1685.5868          874.7534                                                                  
  1559    30.9807    1754(42)          1730.0388          873.8085                                                                  
  1560    30.9974    1834(43)          1773.2166          872.8635                                                                  
  1561    31.0141    1831(43)          1820.8284          871.9186                                                                  
  1562    31.0308    1903(44)          1876.6931          870.9736                                                                  
  1563    31.0475    1968(44)          1940.7019          870.0287                                                                  
  1564    31.0642    2079(46)          2007.8108          869.0837                                                                  
  1565    31.0809    2130(46)          2068.5479          868.1389                                                                  
  1566    31.0977    2219(47)          2111.1816          867.1938                                                                  
  1567    31.1144    2027(45)          2124.7810          866.2489                                                                  
  1568    31.1311    2139(46)          2102.3945          865.3040                                                                  
  1569    31.1478    2057(45)          2042.7581          864.3590                                                                  
  1570    31.1645    1920(44)          1949.8574          863.4141                                                                  
  1571    31.1812    1789(42)          1831.1577          862.4691                                                                  
  1572    31.1979    1631(40)          1696.0303          861.5242                                                                  
  1573    31.2146    1508(39)          1554.4312          860.5793                                                                  
  1574    31.2313    1362(37)          1415.9266          859.6344                                                                  
  1575    31.2481    1288(36)          1288.5547          858.6894                                                                  
  1576    31.2648    1173(34)          1178.0781          857.7445                                                                  
  1577    31.2815    1049(32)          1087.8954          856.7995                                                                  
  1578    31.2982    1026(32)          1019.1611          855.8546                                                                  
  1579    31.3149    983(31)           971.1558          854.9097                                                                   
  1580    31.3316    954(31)           941.8926          853.9648                                                                   
  1581    31.3483    1013(32)           928.5380          853.0198                                                                  
  1582    31.3650    989(31)           927.9508          852.0749                                                                   
  1583    31.3817    961(31)           936.8228          851.1299                                                                   
  1584    31.3985    1017(32)           951.7056          850.1850                                                                  
  1585    31.4152    960(31)           969.3984          849.2400                                                                   
  1586    31.4319    967(31)           986.5876          848.2952                                                                   
  1587    31.4486    977(31)          1000.4269          847.3502                                                                   
  1588    31.4653    1009(32)          1008.8101          846.4053                                                                  
  1589    31.4820    1026(32)          1010.6676          845.4603                                                                  
  1590    31.4987    959(31)          1006.1965          844.5154                                                                   
  1591    31.5154    1022(32)           996.4065          843.5704                                                                  
  1592    31.5321    1022(32)           982.9432          842.6255                                                                  
  1593    31.5489    968(31)           967.7509          841.6805                                                                   
  1594    31.5656    999(32)           952.8263          840.7355                                                                   
  1595    31.5823    956(31)           939.9435          839.7906                                                                   
  1596    31.5990    988(31)           930.3742          838.8457                                                                   
  1597    31.6157    938(31)           924.7173          837.9008                                                                   
  1598    31.6324    906(30)           922.8175          836.9558                                                                   
  1599    31.6491    929(30)           923.9371          836.0109                                                                   
  1600    31.6658    869(29)           927.0150          835.0659                                                                   
  1601    31.6826    945(31)           931.0945          834.1210                                                                   
  1602    31.6993    921(30)           935.8284          833.1760                                                                   
  1603    31.7160    941(31)           941.8692          832.2312                                                                   
  1604    31.7327    978(31)           951.0430          831.2862                                                                   
  1605    31.7494    949(31)           966.1304          830.3413                                                                   
  1606    31.7661    970(31)           990.3608          829.3963                                                                   
  1607    31.7828    1043(32)          1026.6337          828.4514                                                                  
  1608    31.7995    1144(34)          1076.5786          827.5065                                                                  
  1609    31.8162    1104(33)          1139.5939          826.5616                                                                  
  1610    31.8330    1217(35)          1212.2937          825.6166                                                                  
  1611    31.8497    1342(37)          1288.5212          824.6717                                                                  
  1612    31.8664    1383(37)          1360.2473          823.7267                                                                  
  1613    31.8831    1371(37)          1419.0264          822.7818                                                                  
  1614    31.8998    1406(37)          1458.0759          821.8369                                                                  
  1615    31.9165    1402(37)          1473.9031          820.8920                                                                  
  1616    31.9332    1445(38)          1467.1152          819.9470                                                                  
  1617    31.9499    1457(38)          1441.7126          819.0022                                                                  
  1618    31.9666    1431(38)          1403.6757          818.0572                                                                  
  1619    31.9834    1382(37)          1359.6716          817.1122                                                                  
  1620    32.0001    1360(37)          1315.8746          816.1672                                                                  
  1621    32.0168    1304(36)          1277.0519          815.2224                                                                  
  1622    32.0335    1198(35)          1245.7822          814.2775                                                                  
  1623    32.0502    1212(35)          1222.2694          813.3325                                                                  
  1624    32.0669    1232(35)          1204.6564          812.3875                                                                  
  1625    32.0836    1188(34)          1189.8456          811.4425                                                                  
  1626    32.1003    1208(35)          1174.5494          810.4977                                                                  
  1627    32.1170    1152(34)          1156.1818          809.5527                                                                  
  1628    32.1338    1078(33)          1133.2982          808.6077                                                                  
  1629    32.1505    1058(33)          1105.5259          807.6627                                                                  
  1630    32.1672    1008(32)          1073.4486          806.7180                                                                  
  1631    32.1839    1042(32)          1038.3698          805.7729                                                                  
  1632    32.2006    959(31)          1002.0366          804.8280                                                                   
  1633    32.2173    941(31)           966.4489          803.8830                                                                   
  1634    32.2340    990(31)           933.2360          802.9382                                                                   
  1635    32.2507    883(30)           903.6423          801.9932                                                                   
  1636    32.2674    882(30)           878.4229          801.0482                                                                   
  1637    32.2842    893(30)           857.8957          800.1033                                                                   
  1638    32.3009    847(29)           841.9951          799.1584                                                                   
  1639    32.3176    883(30)           830.3651          798.2135                                                                   
  1640    32.3343    821(29)           822.6850          797.2685                                                                   
  1641    32.3510    865(29)           818.7970          796.3235                                                                   
  1642    32.3677    807(28)           818.9308          795.3787                                                                   
  1643    32.3844    836(29)           823.6589          794.4337                                                                   
  1644    32.4011    913(30)           834.0502          793.4888                                                                   
  1645    32.4178    820(29)           851.3765          792.5438                                                                   
  1646    32.4346    888(30)           876.6370          791.5990                                                                   
  1647    32.4513    876(30)           910.2701          790.6540                                                                   
  1648    32.4680    902(30)           951.5573          789.7090                                                                   
  1649    32.4847    977(31)           998.3889          788.7640                                                                   
  1650    32.5014    1048(32)          1047.1753          787.8192                                                                  
  1651    32.5181    1102(33)          1093.2065          786.8743                                                                  
  1652    32.5348    1145(34)          1131.4050          785.9293                                                                  
  1653    32.5515    1112(33)          1157.3240          784.9843                                                                  
  1654    32.5682    1122(33)          1168.1646          784.0393                                                                  
  1655    32.5850    1204(35)          1163.3322          783.0945                                                                  
  1656    32.6017    1067(33)          1144.1084          782.1495                                                                  
  1657    32.6184    1160(34)          1113.1887          781.2045                                                                  
  1658    32.6351    1070(33)          1073.9126          780.2595                                                                  
  1659    32.6518    949(31)          1029.8755          779.3148                                                                   
  1660    32.6685    943(31)           984.5492          778.3698                                                                   
  1661    32.6852    975(31)           941.0387          777.4248                                                                   
  1662    32.7019    946(31)           901.7098          776.4798                                                                   
  1663    32.7186    875(30)           868.2072          775.5350                                                                   
  1664    32.7354    834(29)           841.3731          774.5900                                                                   
  1665    32.7521    853(29)           821.4070          773.6450                                                                   
  1666    32.7688    838(29)           808.0244          772.7001                                                                   
  1667    32.7855    849(29)           800.5820          771.7552                                                                   
  1668    32.8022    775(28)           798.2705          770.8103                                                                   
  1669    32.8189    807(28)           800.1707          769.8653                                                                   
  1670    32.8356    806(28)           805.2886          768.9203                                                                   
  1671    32.8523    852(29)           812.5594          767.9755                                                                   
  1672    32.8690    825(29)           820.8137          767.0305                                                                   
  1673    32.8858    745(27)           828.8386          766.0856                                                                   
  1674    32.9025    783(28)           835.4766          765.1406                                                                   
  1675    32.9192    865(29)           839.7928          764.1958                                                                   
  1676    32.9359    844(29)           841.2450          763.2508                                                                   
  1677    32.9526    845(29)           839.7471          762.3058                                                                   
  1678    32.9693    851(29)           835.6169          761.3608                                                                   
  1679    32.9860    744(27)           829.4257          760.4160                                                                   
  1680    33.0027    788(28)           821.8857          759.4711                                                                   
  1681    33.0195    762(28)           813.7083          758.5261                                                                   
  1682    33.0362    795(28)           805.5650          757.5811                                                                   
  1683    33.0529    791(28)           797.9476          756.6361                                                                   
  1684    33.0696    762(28)           791.1954          755.6913                                                                   
  1685    33.0863    774(28)           785.4424          754.7463                                                                   
  1686    33.1030    813(29)           780.6397          753.8013                                                                   
  1687    33.1197    753(27)           776.6355          752.8563                                                                   
  1688    33.1364    791(28)           773.3200          752.0442                                                                   
  1689    33.1531    719(27)           770.3759          751.2453                                                                   
  1690    33.1699    744(27)           767.6393          750.4465                                                                   
  1691    33.1866    843(29)           764.9680          749.6476                                                                   
  1692    33.2033    782(28)           762.4862          748.8490                                                                   
  1693    33.2200    727(27)           760.2161          748.0501                                                                   
  1694    33.2367    734(27)           758.3560          747.2513                                                                   
  1695    33.2534    760(28)           757.2240          746.4525                                                                   
  1696    33.2701    759(28)           757.2360          745.6538                                                                   
  1697    33.2868    772(28)           759.0261          744.8549                                                                   
  1698    33.3035    733(27)           763.2321          744.0561                                                                   
  1699    33.3203    793(28)           770.5331          743.2573                                                                   
  1700    33.3370    733(27)           781.4719          742.4586                                                                   
  1701    33.3537    755(27)           796.2762          741.6597                                                                   
  1702    33.3704    810(28)           814.6539          740.8609                                                                   
  1703    33.3871    785(28)           835.6489          740.0621                                                                   
  1704    33.4038    836(29)           857.7443          739.2634                                                                   
  1705    33.4205    921(30)           878.8870          738.4645                                                                   
  1706    33.4372    866(29)           896.8867          737.6657                                                                   
  1707    33.4539    905(30)           909.8300          736.8669                                                                   
  1708    33.4707    879(30)           916.4955          736.0680                                                                   
  1709    33.4874    913(30)           916.6101          735.2693                                                                   
  1710    33.5041    971(31)           910.7417          734.4705                                                                   
  1711    33.5208    936(31)           900.0492          733.6717                                                                   
  1712    33.5375    836(29)           885.9553          732.8728                                                                   
  1713    33.5542    902(30)           869.9172          732.0742                                                                   
  1714    33.5709    815(29)           853.2366          731.2753                                                                   
  1715    33.5876    856(29)           836.9779          730.4764                                                                   
  1716    33.6043    766(28)           821.8748          729.6776                                                                   
  1717    33.6211    751(27)           808.3414          728.8790                                                                   
  1718    33.6378    804(28)           796.5385          728.0801                                                                   
  1719    33.6545    806(28)           786.5057          727.2812                                                                   
  1720    33.6712    764(28)           778.2581          726.4824                                                                   
  1721    33.6879    809(28)           771.8755          725.6838                                                                   
  1722    33.7046    783(28)           767.5757          724.8849                                                                   
  1723    33.7213    793(28)           765.7980          724.0861                                                                   
  1724    33.7380    796(28)           767.2451          723.2872                                                                   
  1725    33.7547    815(29)           772.8677          722.4886                                                                   
  1726    33.7715    762(28)           783.7589          721.6898                                                                   
  1727    33.7882    770(28)           800.9393          720.8909                                                                   
  1728    33.8049    800(28)           825.0789          720.0920                                                                   
  1729    33.8216    862(29)           856.1637          719.2934                                                                   
  1730    33.8383    909(30)           893.2560          718.4945                                                                   
  1731    33.8550    920(30)           934.3262          717.6957                                                                   
  1732    33.8717    962(31)           976.3550          716.8969                                                                   
  1733    33.8884    983(31)          1015.8269          716.0982                                                                   
  1734    33.9051    1094(33)          1049.1006          715.2993                                                                  
  1735    33.9219    1146(34)          1073.1707          714.5005                                                                  
  1736    33.9386    1120(33)          1086.3245          713.7017                                                                  
  1737    33.9553    1065(33)          1088.4800          712.9028                                                                  
  1738    33.9720    1023(32)          1081.0931          712.1041                                                                  
  1739    33.9887    1050(32)          1066.4983          711.3053                                                                  
  1740    34.0054    1036(32)          1047.3956          710.5065                                                                  
  1741    34.0221    1020(32)          1026.4158          709.7076                                                                  
  1742    34.0388    1028(32)          1005.8201          708.9089                                                                  
  1743    34.0555    993(32)           987.2238          708.1101                                                                   
  1744    34.0723    1007(32)           971.4185          707.3113                                                                  
  1745    34.0890    949(31)           958.3208          706.5125                                                                   
  1746    34.1057    926(30)           947.1663          705.7137                                                                   
  1747    34.1224    995(32)           936.7874          704.9149                                                                   
  1748    34.1391    972(31)           925.9552          704.1161                                                                   
  1749    34.1558    916(30)           913.7040          703.3172                                                                   
  1750    34.1725    906(30)           899.6232          702.5186                                                                   
  1751    34.1892    882(30)           883.9658          701.7197                                                                   
  1752    34.2060    844(29)           867.5952          700.9209                                                                   
  1753    34.2227    842(29)           851.8003          700.1220                                                                   
  1754    34.2394    822(29)           838.0740          699.3234                                                                   
  1755    34.2561    887(30)           827.9167          698.5245                                                                   
  1756    34.2728    882(30)           822.5722          697.7257                                                                   
  1757    34.2895    867(29)           822.7938          696.9268                                                                   
  1758    34.3062    806(28)           828.6642          696.1282                                                                   
  1759    34.3229    818(29)           839.5125          695.3293                                                                   
  1760    34.3396    859(29)           854.0205          694.5305                                                                   
  1761    34.3564    904(30)           870.3707          693.7316                                                                   
  1762    34.3731    825(29)           886.5423          692.9330                                                                   
  1763    34.3898    892(30)           900.6438          692.1342                                                                   
  1764    34.4065    887(30)           911.1323          691.3353                                                                   
  1765    34.4232    911(30)           916.9104          690.5364                                                                   
  1766    34.4399    907(30)           917.2870          689.7376                                                                   
  1767    34.4566    924(30)           911.9514          688.9390                                                                   
  1768    34.4733    913(30)           901.0328          688.1401                                                                   
  1769    34.4900    875(30)           885.1757          687.3412                                                                   
  1770    34.5068    854(29)           865.4925          686.5424                                                                   
  1771    34.5235    840(29)           843.3578          685.7438                                                                   
  1772    34.5402    834(29)           820.1622          684.9449                                                                   
  1773    34.5569    845(29)           797.1625          684.1461                                                                   
  1774    34.5736    846(29)           775.3931          683.3472                                                                   
  1775    34.5903    721(27)           755.6418          682.5486                                                                   
  1776    34.6070    755(27)           738.4294          681.7497                                                                   
  1777    34.6237    764(28)           724.0590          680.9509                                                                   
  1778    34.6404    742(27)           712.6380          680.1520                                                                   
  1779    34.6572    756(27)           704.1490          679.3533                                                                   
  1780    34.6739    855(29)           698.4579          678.5545                                                                   
  1781    34.6906    877(30)           695.3746          677.7557                                                                   
  1782    34.7073    859(29)           694.6279          676.9568                                                                   
  1783    34.7240    922(30)           695.8621          676.1581                                                                   
  1784    34.7407    913(30)           698.6310          675.3593                                                                   
  1785    34.7574    858(29)           702.3990          674.5605                                                                   
  1786    34.7741    853(29)           706.5333          673.7617                                                                   
  1787    34.7908    851(29)           710.4018          672.9630                                                                   
  1788    34.8076    764(28)           713.4428          672.1641                                                                   
  1789    34.8243    721(27)           715.2125          671.3653                                                                   
  1790    34.8410    753(27)           715.4811          670.5664                                                                   
  1791    34.8577    791(28)           714.2366          669.7678                                                                   
  1792    34.8744    727(27)           711.6585          668.9689                                                                   
  1793    34.8911    671(26)           708.0385          668.1701                                                                   
  1794    34.9078    723(27)           703.6968          667.3712                                                                   
  1795    34.9245    625(25)           698.9531          666.5724                                                                   
  1796    34.9412    653(26)           694.0881          665.7737                                                                   
  1797    34.9580    693(26)           689.3420          664.9749                                                                   
  1798    34.9747    649(25)           684.8768          664.1760                                                                   
  1799    34.9914    660(26)           680.8029          663.3772                                                                   
  1800    35.0081    671(26)           677.1584          662.5786                                                                   
  1801    35.0248    658(26)           673.9479          661.7797                                                                   
  1802    35.0415    673(26)           671.1320          660.9808                                                                   
  1803    35.0582    622(25)           668.6669          660.1820                                                                   
  1804    35.0749    629(25)           666.4991          659.3834                                                                   
  1805    35.0916    655(26)           664.5770          658.5845                                                                   
  1806    35.1084    604(25)           662.8704          657.7856                                                                   
  1807    35.1251    620(25)           661.3755          656.9868                                                                   
  1808    35.1418    675(26)           660.1113          656.1882                                                                   
  1809    35.1585    603(25)           659.1356          655.3893                                                                   
  1810    35.1752    592(24)           658.4991          654.5905                                                                   
  1811    35.1919    633(25)           658.2936          653.7916                                                                   
  1812    35.2086    688(26)           658.5945          652.9930                                                                   
  1813    35.2253    660(26)           659.4765          652.1941                                                                   
  1814    35.2421    612(25)           660.9670          651.3953                                                                   
  1815    35.2588    645(25)           663.0238          650.5964                                                                   
  1816    35.2755    611(25)           665.5110          649.7977                                                                   
  1817    35.2922    670(26)           668.2836          648.9856                                                                   
  1818    35.3089    655(26)           671.0527          648.1567                                                                   
  1819    35.3256    651(26)           673.5427          647.3279                                                                   
  1820    35.3423    611(25)           675.4767          646.4991                                                                   
  1821    35.3590    642(25)           676.6321          645.6703                                                                   
  1822    35.3757    685(26)           676.9628          644.8414                                                                   
  1823    35.3925    637(25)           676.5176          644.0126                                                                   
  1824    35.4092    716(27)           675.4963          643.1837                                                                   
  1825    35.4259    674(26)           674.1819          642.3550                                                                   
  1826    35.4426    661(26)           672.8816          641.5261                                                                   
  1827    35.4593    660(26)           671.9006          640.6973                                                                   
  1828    35.4760    694(26)           671.4922          639.8684                                                                   
  1829    35.4927    675(26)           671.8374          639.0397                                                                   
  1830    35.5094    600(24)           673.0577          638.2109                                                                   
  1831    35.5261    656(26)           675.1839          637.3820                                                                   
  1832    35.5429    687(26)           678.1775          636.5531                                                                   
  1833    35.5596    641(25)           681.9288          635.7244                                                                   
  1834    35.5763    661(26)           686.2879          634.8956                                                                   
  1835    35.5930    663(26)           691.0472          634.0667                                                                   
  1836    35.6097    664(26)           695.9615          633.2379                                                                   
  1837    35.6264    702(26)           700.7042          632.4092                                                                   
  1838    35.6431    707(27)           704.9183          631.5803                                                                   
  1839    35.6598    659(26)           708.2560          630.7514                                                                   
  1840    35.6765    710(27)           710.4518          629.9225                                                                   
  1841    35.6933    746(27)           711.3804          629.0939                                                                   
  1842    35.7100    759(28)           711.0646          628.2650                                                                   
  1843    35.7267    676(26)           709.6294          627.4361                                                                   
  1844    35.7434    709(27)           707.2278          626.6072                                                                   
  1845    35.7601    706(27)           704.0596          625.7786                                                                   
  1846    35.7768    641(25)           700.2861          624.9497                                                                   
  1847    35.7935    758(28)           696.1037          624.1208                                                                   
  1848    35.8102    684(26)           691.7554          623.2920                                                                   
  1849    35.8269    746(27)           687.4990          622.4633                                                                   
  1850    35.8437    722(27)           683.6237          621.6344                                                                   
  1851    35.8604    663(26)           680.3311          620.8055                                                                   
  1852    35.8771    699(26)           677.7750          619.9767                                                                   
  1853    35.8938    687(26)           676.0555          619.1478                                                                   
  1854    35.9105    645(25)           675.2527          618.3192                                                                   
  1855    35.9272    680(26)           675.4672          617.4902                                                                   
  1856    35.9439    691(26)           676.8165          616.6614                                                                   
  1857    35.9606    669(26)           679.4314          615.8325                                                                   
  1858    35.9773    671(26)           683.3967          615.0038                                                                   
  1859    35.9941    675(26)           688.7427          614.1750                                                                   
  1860    36.0108    704(27)           695.3893          613.3461                                                                   
  1861    36.0275    672(26)           703.1400          612.5172                                                                   
  1862    36.0442    764(28)           711.6750          611.6885                                                                   
  1863    36.0609    686(26)           720.5643          610.8597                                                                   
  1864    36.0776    743(27)           729.2395          610.0308                                                                   
  1865    36.0943    727(27)           737.0010          609.2020                                                                   
  1866    36.1110    790(28)           743.0897          608.3733                                                                   
  1867    36.1277    713(27)           746.7872          607.5444                                                                   
  1868    36.1445    708(27)           747.5951          606.7155                                                                   
  1869    36.1612    701(26)           745.4183          605.8867                                                                   
  1870    36.1779    727(27)           740.6323          605.0580                                                                   
  1871    36.1946    751(27)           733.9703          604.2291                                                                   
  1872    36.2113    750(27)           726.3804          603.4003                                                                   
  1873    36.2280    711(27)           718.7949          602.5714                                                                   
  1874    36.2447    745(27)           712.0160          601.7427                                                                   
  1875    36.2614    667(26)           706.6191          600.9138                                                                   
  1876    36.2781    710(27)           702.9086          600.0850                                                                   
  1877    36.2949    666(26)           700.8998          599.2561                                                                   
  1878    36.3116    678(26)           700.3425          598.4274                                                                   
  1879    36.3283    726(27)           700.8066          597.5985                                                                   
  1880    36.3450    712(27)           701.8091          596.7697                                                                   
  1881    36.3617    707(27)           702.9551          595.9408                                                                   
  1882    36.3784    666(26)           703.8619          595.1119                                                                   
  1883    36.3951    707(27)           704.4256          594.2833                                                                   
  1884    36.4118    650(25)           704.6622          593.4543                                                                   
  1885    36.4286    649(25)           704.7336          592.6255                                                                   
  1886    36.4453    627(25)           704.8586          591.7966                                                                   
  1887    36.4620    677(26)           705.2986          590.9680                                                                   
  1888    36.4787    671(26)           706.1357          590.1391                                                                   
  1889    36.4954    705(27)           707.2981          589.3102                                                                   
  1890    36.5121    718(27)           708.4524          588.4813                                                                   
  1891    36.5288    764(28)           709.0555          587.6526                                                                   
  1892    36.5455    720(27)           708.5009          586.8238                                                                   
  1893    36.5622    745(27)           706.2599          585.9949                                                                   
  1894    36.5790    685(26)           702.0289          585.1661                                                                   
  1895    36.5957    759(28)           695.7858          584.3374                                                                   
  1896    36.6124    664(26)           687.7422          583.5085                                                                   
  1897    36.6291    689(26)           678.2696          582.6796                                                                   
  1898    36.6458    650(25)           667.8199          581.8508                                                                   
  1899    36.6625    662(26)           656.8864          581.0221                                                                   
  1900    36.6792    649(25)           645.9692          580.1932                                                                   
  1901    36.6959    629(25)           635.5667          579.3644                                                                   
  1902    36.7126    614(25)           626.1249          578.5355                                                                   
  1903    36.7294    623(25)           618.0084          577.7068                                                                   
  1904    36.7461    608(25)           611.4413          576.8779                                                                   
  1905    36.7628    654(26)           606.5005          576.0491                                                                   
  1906    36.7795    606(25)           603.1001          575.2202                                                                   
  1907    36.7962    592(24)           600.9962          574.3914                                                                   
  1908    36.8129    616(25)           599.8299          573.5626                                                                   
  1909    36.8296    576(24)           599.1845          572.7338                                                                   
  1910    36.8463    596(24)           598.6519          571.9049                                                                   
  1911    36.8630    623(25)           597.8878          571.0760                                                                   
  1912    36.8798    534(23)           596.6990          570.2474                                                                   
  1913    36.8965    571(24)           594.9420          569.4185                                                                   
  1914    36.9132    558(24)           592.6541          568.5896                                                                   
  1915    36.9299    604(25)           589.9183          567.7607                                                                   
  1916    36.9466    522(23)           586.8576          566.9321                                                                   
  1917    36.9633    647(25)           583.6150          566.1032                                                                   
  1918    36.9800    613(25)           580.3644          565.2744                                                                   
  1919    36.9967    592(24)           577.2434          564.4457                                                                   
  1920    37.0134    537(23)           574.4183          563.6168                                                                   
  1921    37.0302    546(23)           572.0424          562.7879                                                                   
  1922    37.0469    603(25)           570.2537          561.9590                                                                   
  1923    37.0636    590(24)           569.1715          561.1304                                                                   
  1924    37.0803    562(24)           568.9050          560.3015                                                                   
  1925    37.0970    570(24)           569.5183          559.4726                                                                   
  1926    37.1137    577(24)           571.0346          558.6437                                                                   
  1927    37.1304    581(24)           573.4259          557.8151                                                                   
  1928    37.1471    539(23)           576.6029          556.9862                                                                   
  1929    37.1638    612(25)           580.4122          556.1573                                                                   
  1930    37.1806    574(24)           584.6575          555.3285                                                                   
  1931    37.1973    573(24)           589.5381          554.9172                                                                   
  1932    37.2140    623(25)           594.5962          554.6649                                                                   
  1933    37.2307    630(25)           599.5267          554.4127                                                                   
  1934    37.2474    622(25)           604.2665          554.1603                                                                   
  1935    37.2641    572(24)           608.8404          553.9081                                                                   
  1936    37.2808    584(24)           613.3397          553.6558                                                                   
  1937    37.2975    631(25)           617.9163          553.4035                                                                   
  1938    37.3142    611(25)           622.7191          553.1512                                                                   
  1939    37.3310    650(25)           627.8726          552.8989                                                                   
  1940    37.3477    587(24)           633.4164          552.6467                                                                   
  1941    37.3644    645(25)           639.3427          552.3944                                                                   
  1942    37.3811    658(26)           645.5691          552.1421                                                                   
  1943    37.3978    631(25)           651.9691          551.8898                                                                   
  1944    37.4145    692(26)           658.3524          551.6376                                                                   
  1945    37.4312    659(26)           664.4470          551.3853                                                                   
  1946    37.4479    700(26)           669.8342          551.1330                                                                   
  1947    37.4646    627(25)           673.9989          550.8807                                                                   
  1948    37.4814    664(26)           676.3633          550.6284                                                                   
  1949    37.4981    682(26)           676.4474          550.3762                                                                   
  1950    37.5148    655(26)           674.0194          550.1238                                                                   
  1951    37.5315    668(26)           669.2095          549.8715                                                                   
  1952    37.5482    643(25)           662.5201          549.6193                                                                   
  1953    37.5649    653(26)           654.8034          549.3670                                                                   
  1954    37.5816    639(25)           647.1185          549.1147                                                                   
  1955    37.5983    655(26)           640.7568          548.8624                                                                   
  1956    37.6150    689(26)           637.1849          548.6102                                                                   
  1957    37.6318    664(26)           637.9963          548.3579                                                                   
  1958    37.6485    656(26)           644.7983          548.1056                                                                   
  1959    37.6652    670(26)           659.0297          547.8533                                                                   
  1960    37.6819    711(27)           681.6528          547.6011                                                                   
  1961    37.6986    676(26)           712.9188          547.3488                                                                   
  1962    37.7153    770(28)           752.0704          547.0964                                                                   
  1963    37.7320    822(29)           797.2253          546.8442                                                                   
  1964    37.7487    830(29)           845.4449          546.5919                                                                   
  1965    37.7654    868(29)           892.9677          546.3396                                                                   
  1966    37.7822    966(31)           935.7396          546.0873                                                                   
  1967    37.7989    995(32)           969.9314          545.8350                                                                   
  1968    37.8156    1009(32)           992.6317          545.5828                                                                  
  1969    37.8323    1085(33)          1002.2686          545.3305                                                                  
  1970    37.8490    992(31)           998.6777          545.0782                                                                   
  1971    37.8657    980(31)           982.8284          544.8259                                                                   
  1972    37.8824    935(31)           956.4814          544.5736                                                                   
  1973    37.8991    924(30)           921.9015          544.3214                                                                   
  1974    37.9159    894(30)           881.6006          544.0691                                                                   
  1975    37.9326    845(29)           838.1921          543.8168                                                                   
  1976    37.9493    792(28)           794.1821          543.5645                                                                   
  1977    37.9660    761(28)           751.8069          543.3123                                                                   
  1978    37.9827    716(27)           712.9407          543.0599                                                                   
  1979    37.9994    733(27)           679.0473          542.8077                                                                   
  1980    38.0161    669(26)           651.1455          542.5554                                                                   
  1981    38.0328    629(25)           629.8119          542.3031                                                                   
  1982    38.0495    645(25)           615.1841          542.0508                                                                   
  1983    38.0663    636(25)           607.0532          541.7985                                                                   
  1984    38.0830    643(25)           604.9162          541.5462                                                                   
  1985    38.0997    579(24)           608.0402          541.2940                                                                   
  1986    38.1164    655(26)           615.5682          541.0417                                                                   
  1987    38.1331    637(25)           626.6098          540.7894                                                                   
  1988    38.1498    618(25)           640.3380          540.5371                                                                   
  1989    38.1665    710(27)           656.0871          540.2849                                                                   
  1990    38.1832    740(27)           673.4108          540.0326                                                                   
  1991    38.1999    660(26)           692.0643          539.7803                                                                   
  1992    38.2167    733(27)           711.9173          539.5280                                                                   
  1993    38.2334    730(27)           732.7575          539.2757                                                                   
  1994    38.2501    770(28)           754.0568          539.0234                                                                   
  1995    38.2668    745(27)           774.8562          538.7711                                                                   
  1996    38.2835    840(29)           793.7534          538.5189                                                                   
  1997    38.3002    811(28)           809.1185          538.2665                                                                   
  1998    38.3169    856(29)           819.3765          538.0143                                                                   
  1999    38.3336    818(29)           823.3677          537.7620                                                                   
  2000    38.3503    824(29)           820.6058          537.5097                                                                   
  2001    38.3671    791(28)           811.3535          537.2574                                                                   
  2002    38.3838    821(29)           796.4574          537.0052                                                                   
  2003    38.4005    675(26)           777.0661          536.7529                                                                   
  2004    38.4172    697(26)           754.4194          536.5006                                                                   
  2005    38.4339    770(28)           729.7269          536.2483                                                                   
  2006    38.4506    729(27)           704.1406          535.9960                                                                   
  2007    38.4673    692(26)           678.7391          535.7438                                                                   
  2008    38.4840    714(27)           654.5154          535.4915                                                                   
  2009    38.5007    589(24)           632.3068          535.2391                                                                   
  2010    38.5175    622(25)           612.7845          534.9869                                                                   
  2011    38.5342    599(24)           596.3373          534.7346                                                                   
  2012    38.5509    584(24)           583.2080          534.4824                                                                   
  2013    38.5676    540(23)           573.4280          534.2300                                                                   
  2014    38.5843    584(24)           566.8720          533.9778                                                                   
  2015    38.6010    588(24)           563.3030          533.7255                                                                   
  2016    38.6177    563(24)           562.4232          533.4732                                                                   
  2017    38.6344    611(25)           563.8678          533.2209                                                                   
  2018    38.6511    604(25)           567.2675          532.9687                                                                   
  2019    38.6679    544(23)           572.2164          532.7164                                                                   
  2020    38.6846    571(24)           578.2615          532.4641                                                                   
  2021    38.7013    609(25)           584.9000          532.2118                                                                   
  2022    38.7180    631(25)           591.6019          531.9595                                                                   
  2023    38.7347    592(24)           597.8170          531.7073                                                                   
  2024    38.7514    586(24)           603.0509          531.4550                                                                   
  2025    38.7681    612(25)           606.9070          531.2026                                                                   
  2026    38.7848    581(24)           609.1271          530.9504                                                                   
  2027    38.8015    633(25)           609.6171          530.6981                                                                   
  2028    38.8183    626(25)           608.4774          530.4458                                                                   
  2029    38.8350    612(25)           605.9929          530.1935                                                                   
  2030    38.8517    585(24)           602.6256          529.9412                                                                   
  2031    38.8684    586(24)           598.9158          529.6890                                                                   
  2032    38.8851    568(24)           595.4122          529.4367                                                                   
  2033    38.9018    596(24)           592.5886          529.1844                                                                   
  2034    38.9185    588(24)           590.7805          528.9321                                                                   
  2035    38.9352    610(25)           590.1344          528.6799                                                                   
  2036    38.9520    662(26)           590.5957          528.4276                                                                   
  2037    38.9687    574(24)           591.9180          528.1753                                                                   
  2038    38.9854    614(25)           593.6749          527.9230                                                                   
  2039    39.0021    593(24)           595.3600          527.6707                                                                   
  2040    39.0188    627(25)           596.4730          527.4185                                                                   
  2041    39.0355    601(25)           596.6055          527.1661                                                                   
  2042    39.0522    590(24)           595.5095          526.9138                                                                   
  2043    39.0689    605(25)           593.1246          526.6616                                                                   
  2044    39.0856    564(24)           589.5292          526.4093                                                                   
  2045    39.1024    581(24)           584.9047          526.1570                                                                   
  2046    39.1191    554(24)           579.4834          525.9047                                                                   
  2047    39.1358    540(23)           573.5235          525.6525                                                                   
  2048    39.1525    567(24)           567.2873          525.4002                                                                   
  2049    39.1692    502(22)           561.0364          525.1479                                                                   
  2050    39.1859    605(25)           555.0082          524.8956                                                                   
  2051    39.2026    525(23)           549.4073          524.6433                                                                   
  2052    39.2193    534(23)           544.3817          524.3911                                                                   
  2053    39.2360    523(23)           540.0226          524.1387                                                                   
  2054    39.2528    512(23)           536.3336          523.8865                                                                   
  2055    39.2695    559(24)           533.3880          523.6342                                                                   
  2056    39.2862    500(22)           531.1140          523.3820                                                                   
  2057    39.3029    507(23)           529.4667          523.1296                                                                   
  2058    39.3196    553(24)           528.4004          522.8773                                                                   
  2059    39.3363    560(24)           527.9183          522.6251                                                                   
  2060    39.3530    493(22)           527.9958          522.3728                                                                   
  2061    39.3697    563(24)           528.7090          522.1205                                                                   
  2062    39.3864    534(23)           530.0831          521.8682                                                                   
  2063    39.4032    513(23)           532.1545          521.6159                                                                   
  2064    39.4199    542(23)           534.9466          521.3896                                                                   
  2065    39.4366    539(23)           538.4016          521.1713                                                                   
  2066    39.4533    534(23)           542.3826          520.9529                                                                   
  2067    39.4700    545(23)           546.7010          520.7345                                                                   
  2068    39.4867    554(24)           551.1071          520.5161                                                                   
  2069    39.5034    568(24)           555.3240          520.2977                                                                   
  2070    39.5201    585(24)           559.0745          520.0793                                                                   
  2071    39.5368    553(24)           562.1271          519.8610                                                                   
  2072    39.5536    580(24)           564.3217          519.6426                                                                   
  2073    39.5703    627(25)           565.5814          519.4243                                                                   
  2074    39.5870    596(24)           565.8991          519.2059                                                                   
  2075    39.6037    536(23)           565.3200          518.9874                                                                   
  2076    39.6204    580(24)           563.9240          518.7691                                                                   
  2077    39.6371    561(24)           561.8192          518.5507                                                                   
  2078    39.6538    526(23)           559.1406          518.3323                                                                   
  2079    39.6705    521(23)           556.0747          518.1140                                                                   
  2080    39.6872    547(23)           552.7896          517.8956                                                                   
  2081    39.7040    539(23)           549.4930          517.6772                                                                   
  2082    39.7207    540(23)           546.3885          517.4588                                                                   
  2083    39.7374    517(23)           543.6910          517.2404                                                                   
  2084    39.7541    514(23)           541.6189          517.0220                                                                   
  2085    39.7708    522(23)           540.4365          516.8037                                                                   
  2086    39.7875    547(23)           540.4268          516.5853                                                                   
  2087    39.8042    539(23)           541.9183          516.3669                                                                   
  2088    39.8209    575(24)           545.3676          516.1486                                                                   
  2089    39.8376    522(23)           551.1994          515.9302                                                                   
  2090    39.8544    577(24)           559.8613          515.7118                                                                   
  2091    39.8711    590(24)           571.7255          515.4934                                                                   
  2092    39.8878    614(25)           586.9928          515.2750                                                                   
  2093    39.9045    614(25)           605.5791          515.0567                                                                   
  2094    39.9212    657(26)           627.1003          514.8383                                                                   
  2095    39.9379    661(26)           650.7475          514.6199                                                                   
  2096    39.9546    657(26)           675.3734          514.4015                                                                   
  2097    39.9713    624(25)           699.5715          514.1832                                                                   
  2098    39.9880    714(27)           721.8362          513.9648                                                                   
  2099    40.0048    750(27)           740.7151          513.7464                                                                   
  2100    40.0215    770(28)           755.0381          513.5280                                                                   
  2101    40.0382    736(27)           764.0880          513.3097                                                                   
  2102    40.0549    818(29)           767.6553          513.0913                                                                   
  2103    40.0716    818(29)           765.9371          512.8729                                                                   
  2104    40.0883    729(27)           759.3869          512.6545                                                                   
  2105    40.1050    759(28)           748.5919          512.4362                                                                   
  2106    40.1217    759(28)           734.2147          512.2178                                                                   
  2107    40.1385    726(27)           717.0205          511.9994                                                                   
  2108    40.1552    702(26)           697.8688          511.7810                                                                   
  2109    40.1719    631(25)           677.6726          511.5626                                                                   
  2110    40.1886    644(25)           657.3167          511.3443                                                                   
  2111    40.2053    653(26)           637.5610          511.1259                                                                   
  2112    40.2220    669(26)           619.0131          510.9075                                                                   
  2113    40.2387    595(24)           602.1048          510.6891                                                                   
  2114    40.2554    612(25)           587.0837          510.4708                                                                   
  2115    40.2721    568(24)           574.0392          510.2523                                                                   
  2116    40.2889    563(24)           562.9402          510.0340                                                                   
  2117    40.3056    577(24)           553.6769          509.8156                                                                   
  2118    40.3223    525(23)           546.0698          509.5972                                                                   
  2119    40.3390    558(24)           539.8936          509.3788                                                                   
  2120    40.3557    513(23)           534.9294          509.1605                                                                   
  2121    40.3724    568(24)           530.9603          508.9421                                                                   
  2122    40.3891    578(24)           527.7901          508.7237                                                                   
  2123    40.4058    488(22)           525.2621          508.5053                                                                   
  2124    40.4225    522(23)           523.2460          508.2870                                                                   
  2125    40.4393    516(23)           521.6617          508.0686                                                                   
  2126    40.4560    535(23)           520.4444          507.8502                                                                   
  2127    40.4727    517(23)           519.5547          507.6318                                                                   
  2128    40.4894    500(22)           518.9543          507.4135                                                                   
  2129    40.5061    480(22)           518.6065          507.1951                                                                   
  2130    40.5228    562(24)           518.4532          506.9767                                                                   
  2131    40.5395    544(23)           518.4505          506.7583                                                                   
  2132    40.5562    467(22)           518.5319          506.5399                                                                   
  2133    40.5729    538(23)           518.6384          506.3215                                                                   
  2134    40.5897    504(22)           518.7238          506.1032                                                                   
  2135    40.6064    508(23)           518.7663          505.8848                                                                   
  2136    40.6231    527(23)           518.7677          505.6664                                                                   
  2137    40.6398    485(22)           518.7712          505.4480                                                                   
  2138    40.6565    462(21)           518.8436          505.2296                                                                   
  2139    40.6732    526(23)           519.0715          505.0113                                                                   
  2140    40.6899    530(23)           519.5624          504.7929                                                                   
  2141    40.7066    541(23)           520.4237          504.5745                                                                   
  2142    40.7233    518(23)           521.7458          504.3561                                                                   
  2143    40.7401    514(23)           523.5798          504.1378                                                                   
  2144    40.7568    502(22)           525.9194          503.9194                                                                   
  2145    40.7735    488(22)           528.6791          503.7010                                                                   
  2146    40.7902    535(23)           531.7065          503.4826                                                                   
  2147    40.8069    492(22)           534.7645          503.2643                                                                   
  2148    40.8236    556(24)           537.5991          503.0459                                                                   
  2149    40.8403    500(22)           539.9467          502.8275                                                                   
  2150    40.8570    545(23)           541.5833          502.6091                                                                   
  2151    40.8737    529(23)           542.3629          502.3908                                                                   
  2152    40.8905    557(24)           542.2468          502.1724                                                                   
  2153    40.9072    509(23)           541.2946          501.9540                                                                   
  2154    40.9239    580(24)           539.6553          501.7356                                                                   
  2155    40.9406    516(23)           537.5479          501.5173                                                                   
  2156    40.9573    526(23)           535.2340          501.2989                                                                   
  2157    40.9740    536(23)           533.0225          501.0805                                                                   
  2158    40.9907    522(23)           531.2566          500.8621                                                                   
  2159    41.0074    597(24)           530.3271          500.6438                                                                   
  2160    41.0241    534(23)           530.6541          500.4254                                                                   
  2161    41.0409    491(22)           532.6564          500.2070                                                                   
  2162    41.0576    508(23)           536.6895          499.9886                                                                   
  2163    41.0743    566(24)           543.0041          499.7702                                                                   
  2164    41.0910    533(23)           551.6528          499.5519                                                                   
  2165    41.1077    574(24)           562.4586          499.3335                                                                   
  2166    41.1244    569(24)           574.9670          499.1151                                                                   
  2167    41.1411    589(24)           588.4596          498.8967                                                                   
  2168    41.1578    585(24)           602.0221          498.6783                                                                   
  2169    41.1745    638(25)           614.6462          498.4600                                                                   
  2170    41.1913    652(26)           625.3444          498.2416                                                                   
  2171    41.2080    654(26)           633.3060          498.0232                                                                   
  2172    41.2247    688(26)           638.0096          497.8048                                                                   
  2173    41.2414    653(26)           639.2607          497.5865                                                                   
  2174    41.2581    659(26)           637.1579          497.3681                                                                   
  2175    41.2748    616(25)           632.0115          497.1497                                                                   
  2176    41.2915    627(25)           624.2706          496.9313                                                                   
  2177    41.3082    613(25)           614.4695          496.7130                                                                   
  2178    41.3250    587(24)           603.2023          496.4946                                                                   
  2179    41.3417    597(24)           591.0772          496.2762                                                                   
  2180    41.3584    563(24)           578.6830          496.0578                                                                   
  2181    41.3751    513(23)           566.5337          495.8394                                                                   
  2182    41.3918    521(23)           555.0563          495.6211                                                                   
  2183    41.4085    590(24)           544.5657          495.4026                                                                   
  2184    41.4252    526(23)           535.2725          495.1843                                                                   
  2185    41.4419    517(23)           527.2773          494.9659                                                                   
  2186    41.4586    488(22)           520.5797          494.7476                                                                   
  2187    41.4754    500(22)           515.1179          494.5291                                                                   
  2188    41.4921    460(21)           510.7661          494.3108                                                                   
  2189    41.5088    489(22)           507.3676          494.0924                                                                   
  2190    41.5255    551(23)           504.7148          493.8287                                                                   
  2191    41.5422    480(22)           502.6348          493.5204                                                                   
  2192    41.5589    475(22)           501.0753          493.2122                                                                   
  2193    41.5756    514(23)           499.9069          492.9040                                                                   
  2194    41.5923    468(22)           499.0456          492.5957                                                                   
  2195    41.6090    526(23)           498.4427          492.2874                                                                   
  2196    41.6258    507(23)           498.0818          491.9791                                                                   
  2197    41.6425    487(22)           497.9708          491.6709                                                                   
  2198    41.6592    543(23)           498.1999          491.3626                                                                   
  2199    41.6759    541(23)           498.8438          491.0544                                                                   
  2200    41.6926    527(23)           500.0379          490.7461                                                                   
  2201    41.7093    514(23)           501.9262          490.4379                                                                   
  2202    41.7260    510(23)           504.6601          490.1296                                                                   
  2203    41.7427    493(22)           508.3667          489.8213                                                                   
  2204    41.7594    554(24)           513.1307          489.5130                                                                   
  2205    41.7762    505(22)           518.9498          489.2048                                                                   
  2206    41.7929    522(23)           525.7296          488.8965                                                                   
  2207    41.8096    561(24)           533.2558          488.5883                                                                   
  2208    41.8263    539(23)           541.2090          488.2800                                                                   
  2209    41.8430    596(24)           549.1826          487.9718                                                                   
  2210    41.8597    501(22)           556.7242          487.6635                                                                   
  2211    41.8764    556(24)           563.3771          487.3552                                                                   
  2212    41.8931    544(23)           568.7410          487.0469                                                                   
  2213    41.9098    509(23)           572.5075          486.7387                                                                   
  2214    41.9266    566(24)           574.5002          486.4304                                                                   
  2215    41.9433    570(24)           574.6631          486.1222                                                                   
  2216    41.9600    588(24)           573.0447          485.8139                                                                   
  2217    41.9767    578(24)           569.7906          485.5057                                                                   
  2218    41.9934    580(24)           565.1353          485.1974                                                                   
  2219    42.0101    554(24)           559.3961          484.8891                                                                   
  2220    42.0268    542(23)           552.9446          484.5808                                                                   
  2221    42.0435    521(23)           546.1772          484.2726                                                                   
  2222    42.0602    557(24)           539.4829          483.9643                                                                   
  2223    42.0770    554(24)           533.2018          483.6561                                                                   
  2224    42.0937    538(23)           527.6149          483.3478                                                                   
  2225    42.1104    542(23)           522.9324          483.0395                                                                   
  2226    42.1271    527(23)           519.2907          482.7313                                                                   
  2227    42.1438    525(23)           516.7505          482.4230                                                                   
  2228    42.1605    534(23)           515.3189          482.1147                                                                   
  2229    42.1772    547(23)           514.9565          481.8065                                                                   
  2230    42.1939    561(24)           515.6166          481.4982                                                                   
  2231    42.2106    537(23)           517.2492          481.1900                                                                   
  2232    42.2274    535(23)           519.8132          480.8817                                                                   
  2233    42.2441    523(23)           523.2759          480.5734                                                                   
  2234    42.2608    554(24)           527.5959          480.2652                                                                   
  2235    42.2775    556(24)           532.7004          479.9569                                                                   
  2236    42.2942    566(24)           538.4697          479.6486                                                                   
  2237    42.3109    569(24)           544.6957          479.3404                                                                   
  2238    42.3276    552(23)           551.1254          479.0321                                                                   
  2239    42.3443    536(23)           557.4644          478.7239                                                                   
  2240    42.3610    595(24)           563.4115          478.4156                                                                   
  2241    42.3778    575(24)           568.7131          478.1073                                                                   
  2242    42.3945    559(24)           573.1932          477.7991                                                                   
  2243    42.4112    622(25)           576.7528          477.4908                                                                   
  2244    42.4279    570(24)           579.3655          477.1825                                                                   
  2245    42.4446    592(24)           581.0300          476.8743                                                                   
  2246    42.4613    592(24)           581.7552          476.5660                                                                   
  2247    42.4780    563(24)           581.5665          476.2578                                                                   
  2248    42.4947    574(24)           580.5053          475.9495                                                                   
  2249    42.5115    603(25)           578.6323          475.6412                                                                   
  2250    42.5282    608(25)           576.0190          475.3329                                                                   
  2251    42.5449    588(24)           572.7401          475.0247                                                                   
  2252    42.5616    589(24)           568.8687          474.7164                                                                   
  2253    42.5783    552(23)           564.5018          474.4081                                                                   
  2254    42.5950    588(24)           559.7554          474.0999                                                                   
  2255    42.6117    564(24)           554.7526          473.7917                                                                   
  2256    42.6284    523(23)           549.6028          473.4834                                                                   
  2257    42.6451    552(23)           544.3979          473.1751                                                                   
  2258    42.6619    524(23)           539.2078          472.8668                                                                   
  2259    42.6786    518(23)           534.0876          472.5586                                                                   
  2260    42.6953    475(22)           529.0925          472.2503                                                                   
  2261    42.7120    502(22)           524.2910          471.9420                                                                   
  2262    42.7287    585(24)           519.7676          471.6338                                                                   
  2263    42.7454    522(23)           515.6168          471.3256                                                                   
  2264    42.7621    552(23)           511.9422          471.0173                                                                   
  2265    42.7788    494(22)           508.8464          470.7090                                                                   
  2266    42.7955    538(23)           506.3890          470.4007                                                                   
  2267    42.8123    486(22)           504.6071          470.0925                                                                   
  2268    42.8290    509(23)           503.5086          469.7842                                                                   
  2269    42.8457    516(23)           503.0791          469.4760                                                                   
  2270    42.8624    524(23)           503.2941          469.1677                                                                   
  2271    42.8791    483(22)           504.1176          468.8595                                                                   
  2272    42.8958    469(22)           505.5067          468.5512                                                                   
  2273    42.9125    501(22)           507.3958          468.2429                                                                   
  2274    42.9292    477(22)           509.6974          467.9346                                                                   
  2275    42.9459    503(22)           512.2891          467.6264                                                                   
  2276    42.9627    524(23)           515.0169          467.3181                                                                   
  2277    42.9794    521(23)           517.6894          467.0099                                                                   
  2278    42.9961    561(24)           520.1005          466.7016                                                                   
  2279    43.0128    531(23)           522.0551          466.3933                                                                   
  2280    43.0295    561(24)           523.3918          466.0851                                                                   
  2281    43.0462    491(22)           524.0192          465.7768                                                                   
  2282    43.0629    537(23)           523.9279          465.4685                                                                   
  2283    43.0796    534(23)           523.1884          465.1602                                                                   
  2284    43.0963    546(23)           521.9332          464.8521                                                                   
  2285    43.1131    510(23)           520.3262          464.5438                                                                   
  2286    43.1298    508(23)           518.5237          464.2355                                                                   
  2287    43.1465    559(24)           516.6610          463.9272                                                                   
  2288    43.1632    516(23)           514.8339          463.6190                                                                   
  2289    43.1799    524(23)           513.0905          463.3107                                                                   
  2290    43.1966    493(22)           511.4361          463.0024                                                                   
  2291    43.2133    521(23)           509.8435          462.6942                                                                   
  2292    43.2300    523(23)           508.2664          462.3860                                                                   
  2293    43.2467    476(22)           506.6526          462.0777                                                                   
  2294    43.2635    522(23)           504.9724          461.7694                                                                   
  2295    43.2802    500(22)           503.2309          461.4611                                                                   
  2296    43.2969    514(23)           501.4775          461.1529                                                                   
  2297    43.3136    524(23)           499.7986          460.8446                                                                   
  2298    43.3303    507(23)           498.3052          460.5363                                                                   
  2299    43.3470    514(23)           497.1109          460.2281                                                                   
  2300    43.3637    491(22)           496.3105          459.9199                                                                   
  2301    43.3804    485(22)           495.9670          459.6116                                                                   
  2302    43.3971    459(21)           496.1016          459.3033                                                                   
  2303    43.4139    497(22)           496.6885          458.9950                                                                   
  2304    43.4306    476(22)           497.6564          458.6868                                                                   
  2305    43.4473    494(22)           498.8964          458.3785                                                                   
  2306    43.4640    476(22)           500.2677          458.0703                                                                   
  2307    43.4807    479(22)           501.6466          457.7620                                                                   
  2308    43.4974    488(22)           502.9081          457.4537                                                                   
  2309    43.5141    514(23)           503.9678          457.1455                                                                   
  2310    43.5308    496(22)           504.7887          456.8372                                                                   
  2311    43.5476    481(22)           505.3794          456.5289                                                                   
  2312    43.5643    517(23)           505.9475          456.3738                                                                   
  2313    43.5810    453(21)           506.4195          456.2363                                                                   
  2314    43.5977    503(22)           506.8596          456.0988                                                                   
  2315    43.6144    526(23)           507.3370          455.9612                                                                   
  2316    43.6311    457(21)           507.9133          455.8237                                                                   
  2317    43.6478    524(23)           508.6402          455.6861                                                                   
  2318    43.6645    504(22)           509.5666          455.5486                                                                   
  2319    43.6812    538(23)           510.7195          455.4110                                                                   
  2320    43.6980    496(22)           512.1328          455.2735                                                                   
  2321    43.7147    466(22)           513.8288          455.1359                                                                   
  2322    43.7314    484(22)           515.8237          454.9984                                                                   
  2323    43.7481    507(23)           518.1249          454.8608                                                                   
  2324    43.7648    502(22)           520.7339          454.7233                                                                   
  2325    43.7815    464(22)           523.6459          454.5857                                                                   
  2326    43.7982    535(23)           526.8414          454.4482                                                                   
  2327    43.8149    516(23)           530.2879          454.3106                                                                   
  2328    43.8316    530(23)           533.9251          454.1731                                                                   
  2329    43.8484    536(23)           537.6332          454.0356                                                                   
  2330    43.8651    529(23)           541.2448          453.8980                                                                   
  2331    43.8818    516(23)           544.5499          453.7604                                                                   
  2332    43.8985    531(23)           547.3305          453.6229                                                                   
  2333    43.9152    576(24)           549.3974          453.4854                                                                   
  2334    43.9319    550(23)           550.6372          453.3478                                                                   
  2335    43.9486    571(24)           551.0274          453.2102                                                                   
  2336    43.9653    554(24)           550.6083          453.0727                                                                   
  2337    43.9820    588(24)           549.4747          452.9351                                                                   
  2338    43.9988    521(23)           547.7134          452.7976                                                                   
  2339    44.0155    551(23)           545.4015          452.6600                                                                   
  2340    44.0322    568(24)           542.5995          452.5225                                                                   
  2341    44.0489    547(23)           539.3708          452.3849                                                                   
  2342    44.0656    573(24)           535.7837          452.2474                                                                   
  2343    44.0823    494(22)           531.9214          452.1098                                                                   
  2344    44.0990    540(23)           527.8640          451.9723                                                                   
  2345    44.1157    520(23)           523.6760          451.8347                                                                   
  2346    44.1324    502(22)           519.4057          451.6972                                                                   
  2347    44.1492    504(22)           515.0720          451.5596                                                                   
  2348    44.1659    536(23)           510.6961          451.4221                                                                   
  2349    44.1826    539(23)           506.2798          451.2845                                                                   
  2350    44.1993    484(22)           501.8459          451.1470                                                                   
  2351    44.2160    540(23)           497.4302          451.0094                                                                   
  2352    44.2327    499(22)           493.0962          450.8719                                                                   
  2353    44.2494    524(23)           488.9019          450.7343                                                                   
  2354    44.2661    447(21)           484.9109          450.5968                                                                   
  2355    44.2828    494(22)           481.1786          450.4592                                                                   
  2356    44.2996    504(22)           477.7408          450.3217                                                                   
  2357    44.3163    519(23)           474.6270          450.1841                                                                   
  2358    44.3330    481(22)           471.8616          450.0466                                                                   
  2359    44.3497    523(23)           469.4581          449.9091                                                                   
  2360    44.3664    531(23)           467.4201          449.7715                                                                   
  2361    44.3831    491(22)           465.7489          449.6339                                                                   
  2362    44.3998    454(21)           464.4366          449.4964                                                                   
  2363    44.4165    430(21)           463.4699          449.3589                                                                   
  2364    44.4332    456(21)           462.8295          449.2213                                                                   
  2365    44.4500    454(21)           462.4888          449.0837                                                                   
  2366    44.4667    457(21)           462.4132          448.9462                                                                   
  2367    44.4834    422(21)           462.5730          448.8087                                                                   
  2368    44.5001    480(22)           462.9410          448.6711                                                                   
  2369    44.5168    459(21)           463.5015          448.5335                                                                   
  2370    44.5335    486(22)           464.2582          448.3960                                                                   
  2371    44.5502    477(22)           465.2293          448.2585                                                                   
  2372    44.5669    486(22)           466.4448          448.1209                                                                   
  2373    44.5836    472(22)           467.9344          447.9833                                                                   
  2374    44.6004    428(21)           469.7204          447.8458                                                                   
  2375    44.6171    523(23)           471.8065          447.7083                                                                   
  2376    44.6338    485(22)           474.1698          447.5707                                                                   
  2377    44.6505    509(23)           476.7562          447.4331                                                                   
  2378    44.6672    539(23)           479.4936          447.2956                                                                   
  2379    44.6839    526(23)           482.2740          447.1581                                                                   
  2380    44.7006    513(23)           484.9745          447.0205                                                                   
  2381    44.7173    514(23)           487.4553          446.8829                                                                   
  2382    44.7341    550(23)           489.5754          446.7454                                                                   
  2383    44.7508    555(24)           491.1990          446.6078                                                                   
  2384    44.7675    507(23)           492.2180          446.4703                                                                   
  2385    44.7842    471(22)           492.5743          446.3327                                                                   
  2386    44.8009    536(23)           492.2652          446.1952                                                                   
  2387    44.8176    480(22)           491.3525          446.0576                                                                   
  2388    44.8343    501(22)           489.9400          445.9201                                                                   
  2389    44.8510    518(23)           488.1605          445.7825                                                                   
  2390    44.8677    468(22)           486.1482          445.6450                                                                   
  2391    44.8845    464(22)           484.0246          445.5074                                                                   
  2392    44.9012    539(23)           481.9005          445.3699                                                                   
  2393    44.9179    458(21)           479.8572          445.2324                                                                   
  2394    44.9346    478(22)           477.9600          445.0948                                                                   
  2395    44.9513    428(21)           476.2469          444.9572                                                                   
  2396    44.9680    456(21)           474.7429          444.8197                                                                   
  2397    44.9847    427(21)           473.4496          444.6822                                                                   
  2398    45.0014    447(21)           472.3566          444.5446                                                                   
  2399    45.0181    456(21)           471.4437          444.4070                                                                   
  2400    45.0349    468(22)           470.6769          444.2695                                                                   
  2401    45.0516    480(22)           470.0187          444.1320                                                                   
  2402    45.0683    420(20)           469.4314          443.9944                                                                   
  2403    45.0850    506(22)           468.8943          443.8568                                                                   
  2404    45.1017    472(22)           468.4143          443.7193                                                                   
  2405    45.1184    472(22)           468.0332          443.5818                                                                   
  2406    45.1351    455(21)           467.8355          443.4442                                                                   
  2407    45.1518    518(23)           467.9475          443.3066                                                                   
  2408    45.1685    468(22)           468.5129          443.1691                                                                   
  2409    45.1853    488(22)           469.6722          443.0316                                                                   
  2410    45.2020    475(22)           471.5363          442.8940                                                                   
  2411    45.2187    422(21)           474.1626          442.7564                                                                   
  2412    45.2354    445(21)           477.5271          442.6189                                                                   
  2413    45.2521    508(23)           481.5217          442.4814                                                                   
  2414    45.2688    479(22)           485.9516          442.3438                                                                   
  2415    45.2855    478(22)           490.5500          442.2062                                                                   
  2416    45.3022    455(21)           495.0109          442.0687                                                                   
  2417    45.3189    472(22)           499.0237          441.9312                                                                   
  2418    45.3357    536(23)           502.3169          441.7936                                                                   
  2419    45.3524    559(24)           504.7067          441.6560                                                                   
  2420    45.3691    475(22)           506.1201          441.5185                                                                   
  2421    45.3858    485(22)           506.5985          441.3810                                                                   
  2422    45.4025    484(22)           506.2747          441.2434                                                                   
  2423    45.4192    499(22)           505.3283          441.1059                                                                   
  2424    45.4359    452(21)           503.9711          440.9683                                                                   
  2425    45.4526    472(22)           502.4001          440.8308                                                                   
  2426    45.4693    460(21)           500.7985          440.6932                                                                   
  2427    45.4861    487(22)           499.3280          440.5557                                                                   
  2428    45.5028    512(23)           498.1216          440.4181                                                                   
  2429    45.5195    483(22)           497.2740          440.2806                                                                   
  2430    45.5362    508(23)           496.8297          440.1430                                                                   
  2431    45.5529    476(22)           496.7823          440.0055                                                                   
  2432    45.5696    475(22)           497.0623          439.8679                                                                   
  2433    45.5863    513(23)           497.5776          439.7304                                                                   
  2434    45.6030    461(21)           498.1843          439.5928                                                                   
  2435    45.6197    511(23)           498.7411          439.4553                                                                   
  2436    45.6365    500(22)           499.1214          439.3177                                                                   
  2437    45.6532    560(24)           499.2378          439.1802                                                                   
  2438    45.6699    491(22)           499.0638          439.0426                                                                   
  2439    45.6866    481(22)           498.6267          438.9051                                                                   
  2440    45.7033    518(23)           498.0317          438.7675                                                                   
  2441    45.7200    494(22)           497.4005          438.6300                                                                   
  2442    45.7367    511(23)           496.8656          438.4924                                                                   
  2443    45.7534    490(22)           496.5493          438.3549                                                                   
  2444    45.7701    464(22)           496.5272          438.2173                                                                   
  2445    45.7869    455(21)           496.8102          438.0798                                                                   
  2446    45.8036    503(22)           497.3505          437.9422                                                                   
  2447    45.8203    459(21)           498.0441          437.8047                                                                   
  2448    45.8370    497(22)           498.7396          437.6671                                                                   
  2449    45.8537    483(22)           499.2633          437.5295                                                                   
  2450    45.8704    519(23)           499.4538          437.3920                                                                   
  2451    45.8871    512(23)           499.1800          437.2545                                                                   
  2452    45.9038    489(22)           498.3557          437.1169                                                                   
  2453    45.9206    478(22)           496.9449          436.9794                                                                   
  2454    45.9373    467(22)           494.9632          436.8418                                                                   
  2455    45.9540    485(22)           492.4683          436.7043                                                                   
  2456    45.9707    496(22)           489.5511          436.5667                                                                   
  2457    45.9874    493(22)           486.3203          436.4292                                                                   
  2458    46.0041    462(21)           482.8904          436.2916                                                                   
  2459    46.0208    458(21)           479.3658          436.1541                                                                   
  2460    46.0375    512(23)           475.8391          436.0165                                                                   
  2461    46.0542    475(22)           472.3824          435.8790                                                                   
  2462    46.0709    506(22)           469.0533          435.7414                                                                   
  2463    46.0877    501(22)           465.8840          435.6039                                                                   
  2464    46.1044    480(22)           462.9011          435.4663                                                                   
  2465    46.1211    448(21)           460.1163          435.3288                                                                   
  2466    46.1378    473(22)           457.5311          435.1912                                                                   
  2467    46.1545    480(22)           455.1402          435.0537                                                                   
  2468    46.1712    441(21)           452.9350          434.9161                                                                   
  2469    46.1879    454(21)           450.9058          434.7786                                                                   
  2470    46.2046    470(22)           449.0421          434.6411                                                                   
  2471    46.2214    464(22)           447.3340          434.5035                                                                   
  2472    46.2381    457(21)           445.7741          434.3659                                                                   
  2473    46.2548    407(20)           444.3579          434.2284                                                                   
  2474    46.2715    438(21)           443.0857          434.0909                                                                   
  2475    46.2882    418(20)           441.9565          433.9533                                                                   
  2476    46.3049    437(21)           440.9785          433.8157                                                                   
  2477    46.3216    419(20)           440.1625          433.6782                                                                   
  2478    46.3383    460(21)           439.5187          433.5406                                                                   
  2479    46.3550    453(21)           439.0624          433.4031                                                                   
  2480    46.3718    424(21)           438.8045          433.2655                                                                   
  2481    46.3885    446(21)           438.7596          433.1307                                                                   
  2482    46.4052    460(21)           438.9781          433.0396                                                                   
  2483    46.4219    445(21)           439.4258          432.9485                                                                   
  2484    46.4386    421(21)           440.1113          432.8573                                                                   
  2485    46.4553    475(22)           441.0370          432.7662                                                                   
  2486    46.4720    418(20)           442.2126          432.6750                                                                   
  2487    46.4887    468(22)           443.6333          432.5839                                                                   
  2488    46.5054    460(21)           445.2895          432.4927                                                                   
  2489    46.5222    453(21)           447.1621          432.4016                                                                   
  2490    46.5389    448(21)           449.2194          432.3104                                                                   
  2491    46.5556    484(22)           451.4168          432.2193                                                                   
  2492    46.5723    470(22)           453.6931          432.1281                                                                   
  2493    46.5890    471(22)           455.9777          432.0370                                                                   
  2494    46.6057    472(22)           458.1770          431.9459                                                                   
  2495    46.6224    455(21)           460.1956          431.8547                                                                   
  2496    46.6391    429(21)           461.9383          431.7636                                                                   
  2497    46.6558    470(22)           463.3228          431.6724                                                                   
  2498    46.6726    491(22)           464.2907          431.5813                                                                   
  2499    46.6893    489(22)           464.8154          431.4901                                                                   
  2500    46.7060    456(21)           464.8974          431.3990                                                                   
  2501    46.7227    462(21)           464.5670          431.3079                                                                   
  2502    46.7394    479(22)           463.8699          431.2167                                                                   
  2503    46.7561    442(21)           462.8680          431.1256                                                                   
  2504    46.7728    478(22)           461.5966          431.0344                                                                   
  2505    46.7895    457(21)           460.1177          430.9433                                                                   
  2506    46.8062    452(21)           458.4832          430.8521                                                                   
  2507    46.8230    485(22)           456.7450          430.7610                                                                   
  2508    46.8397    423(21)           454.9586          430.6698                                                                   
  2509    46.8564    442(21)           453.1783          430.5787                                                                   
  2510    46.8731    411(20)           451.4584          430.4875                                                                   
  2511    46.8898    441(21)           449.8541          430.3964                                                                   
  2512    46.9065    460(21)           448.4067          430.3053                                                                   
  2513    46.9232    427(21)           447.1337          430.2141                                                                   
  2514    46.9399    448(21)           446.0691          430.1230                                                                   
  2515    46.9566    463(22)           445.2270          430.0318                                                                   
  2516    46.9734    462(21)           444.6173          429.9407                                                                   
  2517    46.9901    451(21)           444.2443          429.8495                                                                   
  2518    47.0068    407(20)           444.1112          429.7584                                                                   
  2519    47.0235    437(21)           444.2194          429.6672                                                                   
  2520    47.0402    436(21)           444.5416          429.5761                                                                   
  2521    47.0569    437(21)           445.0709          429.4850                                                                   
  2522    47.0736    439(21)           445.7661          429.3938                                                                   
  2523    47.0903    433(21)           446.5692          429.3026                                                                   
  2524    47.1070    440(21)           447.4243          429.2115                                                                   
  2525    47.1238    451(21)           448.2728          429.1204                                                                   
  2526    47.1405    470(22)           449.0652          429.0292                                                                   
  2527    47.1572    447(21)           449.7684          428.9380                                                                   
  2528    47.1739    410(20)           450.3858          428.8469                                                                   
  2529    47.1906    486(22)           450.9375          428.7558                                                                   
  2530    47.2073    421(21)           451.4762          428.6646                                                                   
  2531    47.2240    451(21)           452.0654          428.5735                                                                   
  2532    47.2407    447(21)           452.7850          428.4824                                                                   
  2533    47.2575    467(22)           453.7136          428.3912                                                                   
  2534    47.2742    421(21)           454.9246          428.3000                                                                   
  2535    47.2909    454(21)           456.4865          428.2089                                                                   
  2536    47.3076    451(21)           458.4563          428.1178                                                                   
  2537    47.3243    476(22)           460.8784          428.0266                                                                   
  2538    47.3410    447(21)           463.7830          427.9355                                                                   
  2539    47.3577    448(21)           467.1736          427.8443                                                                   
  2540    47.3744    452(21)           471.0319          427.7532                                                                   
  2541    47.3911    479(22)           475.2969          427.6620                                                                   
  2542    47.4079    486(22)           479.8735          427.5709                                                                   
  2543    47.4246    512(23)           484.6202          427.4797                                                                   
  2544    47.4413    510(23)           489.3631          427.3886                                                                   
  2545    47.4580    540(23)           493.9053          427.2975                                                                   
  2546    47.4747    475(22)           498.0405          427.2063                                                                   
  2547    47.4914    522(23)           501.5771          427.1152                                                                   
  2548    47.5081    513(23)           504.3376          427.0240                                                                   
  2549    47.5248    501(22)           506.1849          426.9329                                                                   
  2550    47.5415    519(23)           507.0259          426.8417                                                                   
  2551    47.5583    475(22)           506.8182          426.7506                                                                   
  2552    47.5750    516(23)           505.5692          426.6594                                                                   
  2553    47.5917    506(22)           503.3539          426.5683                                                                   
  2554    47.6084    512(23)           500.2889          426.4771                                                                   
  2555    47.6251    538(23)           496.5422          426.3860                                                                   
  2556    47.6418    502(22)           492.3143          426.2949                                                                   
  2557    47.6585    483(22)           487.8301          426.2037                                                                   
  2558    47.6752    481(22)           483.2975          426.1126                                                                   
  2559    47.6919    452(21)           478.9092          426.0214                                                                   
  2560    47.7087    486(22)           474.8259          425.9303                                                                   
  2561    47.7254    516(23)           471.1621          425.8391                                                                   
  2562    47.7421    497(22)           467.9853          425.7480                                                                   
  2563    47.7588    480(22)           465.3242          425.6568                                                                   
  2564    47.7755    450(21)           463.1597          425.5657                                                                   
  2565    47.7922    437(21)           461.4455          425.4745                                                                   
  2566    47.8089    500(22)           460.1075          425.3834                                                                   
  2567    47.8256    466(22)           459.0633          425.2923                                                                   
  2568    47.8423    464(22)           458.2317          425.2011                                                                   
  2569    47.8591    451(21)           457.5448          425.1100                                                                   
  2570    47.8758    488(22)           456.9548          425.0188                                                                   
  2571    47.8925    483(22)           456.4267          424.9277                                                                   
  2572    47.9092    467(22)           455.9391          424.8365                                                                   
  2573    47.9259    464(22)           455.4710          424.7454                                                                   
  2574    47.9426    442(21)           454.9973          424.6542                                                                   
  2575    47.9593    423(21)           454.4856          424.5631                                                                   
  2576    47.9760    436(21)           453.8975          424.4720                                                                   
  2577    47.9927    441(21)           453.1926          424.3808                                                                   
  2578    48.0095    453(21)           452.3364          424.2897                                                                   
  2579    48.0262    466(22)           451.3033          424.1985                                                                   
  2580    48.0429    450(21)           450.0861          424.1074                                                                   
  2581    48.0596    431(21)           448.6997          424.0162                                                                   
  2582    48.0763    451(21)           447.1824          423.9251                                                                   
  2583    48.0930    411(20)           445.5879          423.8340                                                                   
  2584    48.1097    431(21)           443.9847          423.7428                                                                   
  2585    48.1264    423(21)           442.4470          423.6516                                                                   
  2586    48.1431    441(21)           441.0517          423.5605                                                                   
  2587    48.1599    436(21)           439.8729          423.4694                                                                   
  2588    48.1766    438(21)           438.9879          423.3782                                                                   
  2589    48.1933    442(21)           438.4731          423.2870                                                                   
  2590    48.2100    444(21)           438.4038          423.1959                                                                   
  2591    48.2267    444(21)           438.8500          423.1048                                                                   
  2592    48.2434    483(22)           439.8784          423.0136                                                                   
  2593    48.2601    485(22)           441.5471          422.9225                                                                   
  2594    48.2768    458(21)           443.9061          422.8313                                                                   
  2595    48.2935    414(20)           446.9966          422.7402                                                                   
  2596    48.3103    470(22)           450.8551          422.6490                                                                   
  2597    48.3270    464(22)           455.5067          422.5579                                                                   
  2598    48.3437    452(21)           460.9745          422.4667                                                                   
  2599    48.3604    475(22)           467.2744          422.3756                                                                   
  2600    48.3771    485(22)           474.4021          422.2845                                                                   
  2601    48.3938    487(22)           482.3396          422.1933                                                                   
  2602    48.4105    456(21)           491.0408          422.1022                                                                   
  2603    48.4272    511(23)           500.4051          422.0110                                                                   
  2604    48.4440    529(23)           510.2916          421.9199                                                                   
  2605    48.4607    528(23)           520.4910          421.8287                                                                   
  2606    48.4774    520(23)           530.7689          421.7376                                                                   
  2607    48.4941    543(23)           540.8702          421.6465                                                                   
  2608    48.5108    562(24)           550.5441          421.5553                                                                   
  2609    48.5275    551(23)           559.5618          421.4642                                                                   
  2610    48.5442    561(24)           567.7369          421.3730                                                                   
  2611    48.5609    573(24)           574.9302          421.2819                                                                   
  2612    48.5776    529(23)           581.0573          421.1907                                                                   
  2613    48.5944    591(24)           586.0713          421.0996                                                                   
  2614    48.6111    613(25)           589.9474          421.0084                                                                   
  2615    48.6278    579(24)           592.6250          420.9173                                                                   
  2616    48.6445    625(25)           594.0386          420.8261                                                                   
  2617    48.6612    601(25)           594.0946          420.7350                                                                   
  2618    48.6779    592(24)           592.7070          420.6439                                                                   
  2619    48.6946    623(25)           589.8384          420.5527                                                                   
  2620    48.7113    599(24)           585.5414          420.4616                                                                   
  2621    48.7280    584(24)           579.9745          420.3704                                                                   
  2622    48.7448    554(24)           573.3985          420.2793                                                                   
  2623    48.7615    569(24)           566.1130          420.1881                                                                   
  2624    48.7782    597(24)           558.4381          420.0970                                                                   
  2625    48.7949    593(24)           550.6495          420.0058                                                                   
  2626    48.8116    514(23)           542.9681          419.9147                                                                   
  2627    48.8283    546(23)           535.5461          419.8235                                                                   
  2628    48.8450    544(23)           528.4783          419.7324                                                                   
  2629    48.8617    581(24)           521.8140          419.6413                                                                   
  2630    48.8784    525(23)           515.5836          419.5501                                                                   
  2631    48.8952    558(24)           509.8109          419.4590                                                                   
  2632    48.9119    488(22)           504.5284          419.3678                                                                   
  2633    48.9286    533(23)           499.7824          419.2767                                                                   
  2634    48.9453    493(22)           495.6270          419.1855                                                                   
  2635    48.9620    473(22)           492.1150          419.0944                                                                   
  2636    48.9787    511(23)           489.2886          419.0032                                                                   
  2637    48.9954    488(22)           487.1683          418.9121                                                                   
  2638    49.0121    483(22)           485.7541          418.8210                                                                   
  2639    49.0288    516(23)           485.0229          418.7298                                                                   
  2640    49.0456    507(23)           484.9160          418.6387                                                                   
  2641    49.0623    469(22)           485.3592          418.5475                                                                   
  2642    49.0790    490(22)           486.2466          418.4564                                                                   
  2643    49.0957    505(22)           487.4503          418.3652                                                                   
  2644    49.1124    511(23)           488.8258          418.2741                                                                   
  2645    49.1291    464(22)           490.2225          418.1829                                                                   
  2646    49.1458    468(22)           491.4879          418.0918                                                                   
  2647    49.1625    490(22)           492.4810          418.0006                                                                   
  2648    49.1792    520(23)           493.0745          417.9095                                                                   
  2649    49.1960    493(22)           493.1716          417.8184                                                                   
  2650    49.2127    499(22)           492.7097          417.7272                                                                   
  2651    49.2294    459(21)           491.6564          417.6360                                                                   
  2652    49.2461    490(22)           490.0199          417.5449                                                                   
  2653    49.2628    452(21)           487.8438          417.4538                                                                   
  2654    49.2795    495(22)           485.1926          417.3626                                                                   
  2655    49.2962    487(22)           482.1528          417.2715                                                                   
  2656    49.3129    541(23)           478.8359          417.1803                                                                   
  2657    49.3296    447(21)           475.3599          417.0892                                                                   
  2658    49.3464    445(21)           471.8542          416.9980                                                                   
  2659    49.3631    499(22)           468.4483          416.9069                                                                   
  2660    49.3798    466(22)           465.2774          416.8157                                                                   
  2661    49.3965    488(22)           462.4590          416.7246                                                                   
  2662    49.4132    476(22)           460.0894          416.6335                                                                   
  2663    49.4299    428(21)           458.2413          416.5423                                                                   
  2664    49.4466    469(22)           456.9522          416.4512                                                                   
  2665    49.4633    469(22)           456.2168          416.3600                                                                   
  2666    49.4800    436(21)           455.9919          416.2689                                                                   
  2667    49.4968    433(21)           456.1921          416.1777                                                                   
  2668    49.5135    433(21)           456.7007          416.0866                                                                   
  2669    49.5302    433(21)           457.3717          415.9955                                                                   
  2670    49.5469    463(22)           458.0547          415.9043                                                                   
  2671    49.5636    460(21)           458.5895          415.8131                                                                   
  2672    49.5803    428(21)           458.8442          415.7220                                                                   
  2673    49.5970    458(21)           458.7211          415.6309                                                                   
  2674    49.6137    471(22)           458.1661          415.5397                                                                   
  2675    49.6305    489(22)           457.1696          415.4486                                                                   
  2676    49.6472    459(21)           455.7666          415.3574                                                                   
  2677    49.6639    446(21)           454.0128          415.2663                                                                   
  2678    49.6806    463(22)           451.9871          415.1751                                                                   
  2679    49.6973    403(20)           449.7674          415.0840                                                                   
  2680    49.7140    429(21)           447.4394          414.9928                                                                   
  2681    49.7307    486(22)           445.0859          414.9017                                                                   
  2682    49.7474    459(21)           442.7870          414.8105                                                                   
  2683    49.7641    431(21)           440.5752          414.6734                                                                   
  2684    49.7809    457(21)           438.5549          414.5230                                                                   
  2685    49.7976    435(21)           436.8013          414.3727                                                                   
  2686    49.8143    466(22)           435.3663          414.2223                                                                   
  2687    49.8310    414(20)           434.2865          414.0719                                                                   
  2688    49.8477    428(21)           433.5856          413.9215                                                                   
  2689    49.8644    443(21)           433.2725          413.7711                                                                   
  2690    49.8811    431(21)           433.3319          413.6208                                                                   
  2691    49.8978    409(20)           433.7484          413.4704                                                                   
  2692    49.9145    430(21)           434.4962          413.3201                                                                   
  2693    49.9313    454(21)           435.5510          413.1697                                                                   
  2694    49.9480    435(21)           436.8960          413.0193                                                                   
  2695    49.9647    426(21)           438.5200          412.8690                                                                   
  2696    49.9814    412(20)           440.4314          412.7186                                                                   
  2697    49.9981    454(21)           442.6522          412.5682                                                                   
  2698    50.0148    447(21)           445.2111          412.4178                                                                   
  2699    50.0315    452(21)           448.1520          412.2675                                                                   
  2700    50.0482    468(22)           451.5148          412.1171                                                                   
  2701    50.0649    477(22)           455.3306          411.9667                                                                   
  2702    50.0817    489(22)           459.6102          411.8163                                                                   
  2703    50.0984    508(23)           464.3338          411.6660                                                                   
  2704    50.1151    475(22)           469.4430          411.5156                                                                   
  2705    50.1318    474(22)           474.8361          411.3652                                                                   
  2706    50.1485    501(22)           480.3700          411.2148                                                                   
  2707    50.1652    487(22)           485.8690          411.0645                                                                   
  2708    50.1819    512(23)           491.1407          410.9141                                                                   
  2709    50.1986    502(22)           495.9955          410.7637                                                                   
  2710    50.2153    474(22)           500.2612          410.6133                                                                   
  2711    50.2321    491(22)           503.8086          410.4630                                                                   
  2712    50.2488    491(22)           506.5695          410.3126                                                                   
  2713    50.2655    454(21)           508.5356          410.1622                                                                   
  2714    50.2822    518(23)           509.7583          410.0118                                                                   
  2715    50.2989    501(22)           510.3398          409.8615                                                                   
  2716    50.3156    507(23)           510.4092          409.7111                                                                   
  2717    50.3323    516(23)           510.1095          409.5607                                                                   
  2718    50.3490    517(23)           509.5776          409.4103                                                                   
  2719    50.3657    475(22)           508.9109          409.2600                                                                   
  2720    50.3825    483(22)           508.1889          409.1096                                                                   
  2721    50.3992    507(23)           507.4055          408.9592                                                                   
  2722    50.4159    502(22)           506.5141          408.8089                                                                   
  2723    50.4326    486(22)           505.4283          408.6585                                                                   
  2724    50.4493    525(23)           504.0346          408.5081                                                                   
  2725    50.4660    461(21)           502.2214          408.3578                                                                   
  2726    50.4827    506(22)           499.9063          408.2074                                                                   
  2727    50.4994    517(23)           497.0465          408.0570                                                                   
  2728    50.5161    464(22)           493.6533          407.9066                                                                   
  2729    50.5329    510(23)           489.7933          407.7563                                                                   
  2730    50.5496    423(21)           485.5385          407.6059                                                                   
  2731    50.5663    460(21)           480.9744          407.4555                                                                   
  2732    50.5830    460(21)           476.1896          407.3051                                                                   
  2733    50.5997    419(20)           471.2692          407.1548                                                                   
  2734    50.6164    468(22)           466.2986          407.0044                                                                   
  2735    50.6331    477(22)           461.3666          406.8540                                                                   
  2736    50.6498    472(22)           456.5698          406.7037                                                                   
  2737    50.6665    478(22)           452.0244          406.5533                                                                   
  2738    50.6833    467(22)           447.8317          406.4029                                                                   
  2739    50.7000    447(21)           444.0945          406.2525                                                                   
  2740    50.7167    422(21)           440.9014          406.1022                                                                   
  2741    50.7334    430(21)           438.3278          405.9518                                                                   
  2742    50.7501    418(20)           436.4160          405.8014                                                                   
  2743    50.7668    381(20)           435.1781          405.6510                                                                   
  2744    50.7835    436(21)           434.5929          405.5007                                                                   
  2745    50.8002    429(21)           434.6027          405.3503                                                                   
  2746    50.8170    384(20)           435.1106          405.1999                                                                   
  2747    50.8337    422(21)           435.9982          405.0495                                                                   
  2748    50.8504    386(20)           437.1183          404.8992                                                                   
  2749    50.8671    437(21)           438.3227          404.7488                                                                   
  2750    50.8838    422(21)           439.4657          404.5984                                                                   
  2751    50.9005    469(22)           440.4120          404.4481                                                                   
  2752    50.9172    440(21)           441.0703          404.2977                                                                   
  2753    50.9339    451(21)           441.3833          404.1473                                                                   
  2754    50.9506    407(20)           441.3370          403.9969                                                                   
  2755    50.9674    447(21)           440.9489          403.8466                                                                   
  2756    50.9841    439(21)           440.2556          403.6962                                                                   
  2757    51.0008    417(20)           439.3147          403.5458                                                                   
  2758    51.0175    431(21)           438.1698          403.3954                                                                   
  2759    51.0342    442(21)           436.8774          403.2451                                                                   
  2760    51.0509    444(21)           435.4951          403.0947                                                                   
  2761    51.0676    440(21)           434.0796          402.9443                                                                   
  2762    51.0843    452(21)           432.7039          402.7939                                                                   
  2763    51.1010    445(21)           431.4448          402.6436                                                                   
  2764    51.1178    448(21)           430.3900          402.4932                                                                   
  2765    51.1345    462(21)           429.6375          402.3428                                                                   
  2766    51.1512    412(20)           429.2812          402.1925                                                                   
  2767    51.1679    445(21)           429.4205          402.0421                                                                   
  2768    51.1846    423(21)           430.1353          401.8917                                                                   
  2769    51.2013    413(20)           431.4838          401.7414                                                                   
  2770    51.2180    408(20)           433.5016          401.5910                                                                   
  2771    51.2347    425(21)           436.1782          401.4406                                                                   
  2772    51.2514    458(21)           439.4744          401.2902                                                                   
  2773    51.2682    458(21)           443.3140          401.1399                                                                   
  2774    51.2849    445(21)           447.5901          400.9895                                                                   
  2775    51.3016    446(21)           452.1672          400.8391                                                                   
  2776    51.3183    467(22)           456.8896          400.6887                                                                   
  2777    51.3350    510(23)           461.5894          400.5384                                                                   
  2778    51.3517    508(23)           466.1050          400.3880                                                                   
  2779    51.3684    478(22)           470.2690          400.2376                                                                   
  2780    51.3851    487(22)           473.9319          400.0872                                                                   
  2781    51.4018    507(23)           476.9568          399.9369                                                                   
  2782    51.4186    528(23)           479.2277          399.7865                                                                   
  2783    51.4353    521(23)           480.6497          399.6361                                                                   
  2784    51.4520    479(22)           481.1764          399.4857                                                                   
  2785    51.4687    504(22)           480.7936          399.3354                                                                   
  2786    51.4854    490(22)           479.5508          399.1850                                                                   
  2787    51.5021    460(21)           477.5387          399.0346                                                                   
  2788    51.5188    484(22)           474.8984          398.8842                                                                   
  2789    51.5355    456(21)           471.8001          398.7339                                                                   
  2790    51.5522    495(22)           468.4439          398.5835                                                                   
  2791    51.5690    480(22)           464.9977          398.4331                                                                   
  2792    51.5857    480(22)           461.6719          398.2828                                                                   
  2793    51.6024    414(20)           458.6427          398.1324                                                                   
  2794    51.6191    479(22)           456.0572          397.9820                                                                   
  2795    51.6358    446(21)           454.0380          397.8317                                                                   
  2796    51.6525    462(21)           452.6552          397.6813                                                                   
  2797    51.6692    446(21)           451.9289          397.5309                                                                   
  2798    51.6859    462(21)           451.8283          397.3806                                                                   
  2799    51.7026    458(21)           452.2524          397.2302                                                                   
  2800    51.7194    486(22)           453.0755          397.0798                                                                   
  2801    51.7361    453(21)           454.1306          396.9294                                                                   
  2802    51.7528    471(22)           455.2407          396.7791                                                                   
  2803    51.7695    469(22)           456.2208          396.6287                                                                   
  2804    51.7862    492(22)           456.9106          396.4783                                                                   
  2805    51.8029    459(21)           457.1822          396.3279                                                                   
  2806    51.8196    441(21)           456.9433          396.1776                                                                   
  2807    51.8363    455(21)           456.1399          396.0272                                                                   
  2808    51.8531    458(21)           454.7502          395.8768                                                                   
  2809    51.8698    435(21)           452.7852          395.7264                                                                   
  2810    51.8865    501(22)           450.2868          395.5761                                                                   
  2811    51.9032    446(21)           447.3191          395.4257                                                                   
  2812    51.9199    444(21)           443.9706          395.2753                                                                   
  2813    51.9366    481(22)           440.3474          395.1249                                                                   
  2814    51.9533    425(21)           436.5694          394.9746                                                                   
  2815    51.9700    462(21)           432.7583          394.8242                                                                   
  2816    51.9867    441(21)           429.0309          394.6738                                                                   
  2817    52.0035    430(21)           425.4999          394.5234                                                                   
  2818    52.0202    450(21)           422.2706          394.3730                                                                   
  2819    52.0369    397(20)           419.4346          394.2227                                                                   
  2820    52.0536    413(20)           417.0676          394.0723                                                                   
  2821    52.0703    428(21)           415.2294          393.9219                                                                   
  2822    52.0870    421(21)           413.9564          393.7716                                                                   
  2823    52.1037    406(20)           413.2620          393.6212                                                                   
  2824    52.1204    423(21)           413.1476          393.4709                                                                   
  2825    52.1371    389(20)           413.5815          393.3205                                                                   
  2826    52.1539    427(21)           414.5129          393.1701                                                                   
  2827    52.1706    406(20)           415.8737          393.0197                                                                   
  2828    52.1873    463(22)           417.5790          392.8694                                                                   
  2829    52.2040    396(20)           419.5388          392.7190                                                                   
  2830    52.2207    451(21)           421.6474          392.5686                                                                   
  2831    52.2374    474(22)           423.8006          392.4182                                                                   
  2832    52.2541    402(20)           425.9099          392.2679                                                                   
  2833    52.2708    427(21)           427.8942          392.1175                                                                   
  2834    52.2875    420(20)           429.6956          391.9671                                                                   
  2835    52.3043    387(20)           431.2806          391.8167                                                                   
  2836    52.3210    430(21)           432.6394          391.6664                                                                   
  2837    52.3377    426(21)           433.7901          391.5160                                                                   
  2838    52.3544    454(21)           434.7623          391.3656                                                                   
  2839    52.3711    397(20)           435.5976          391.2153                                                                   
  2840    52.3878    444(21)           436.3521          391.0649                                                                   
  2841    52.4045    452(21)           437.0621          390.9145                                                                   
  2842    52.4212    414(20)           437.7562          390.7641                                                                   
  2843    52.4379    457(21)           438.4449          390.6138                                                                   
  2844    52.4547    455(21)           439.1287          390.4713                                                                   
  2845    52.4714    459(21)           439.7933          390.3452                                                                   
  2846    52.4881    458(21)           440.3849          390.2190                                                                   
  2847    52.5048    461(21)           440.8640          390.0928                                                                   
  2848    52.5215    413(20)           441.2013          389.9666                                                                   
  2849    52.5382    457(21)           441.3674          389.8404                                                                   
  2850    52.5549    422(21)           441.3447          389.7142                                                                   
  2851    52.5716    467(22)           441.1263          389.5880                                                                   
  2852    52.5883    414(20)           440.7168          389.4619                                                                   
  2853    52.6051    392(20)           440.1361          389.3357                                                                   
  2854    52.6218    422(21)           439.4198          389.2095                                                                   
  2855    52.6385    400(20)           438.6243          389.0833                                                                   
  2856    52.6552    445(21)           437.8262          388.9571                                                                   
  2857    52.6719    441(21)           437.1106          388.8309                                                                   
  2858    52.6886    475(22)           436.5681          388.7047                                                                   
  2859    52.7053    438(21)           436.2829          388.5785                                                                   
  2860    52.7220    440(21)           436.3192          388.4524                                                                   
  2861    52.7387    447(21)           436.7197          388.3262                                                                   
  2862    52.7555    441(21)           437.5061          388.2000                                                                   
  2863    52.7722    473(22)           438.6652          388.0738                                                                   
  2864    52.7889    426(21)           440.1650          387.9476                                                                   
  2865    52.8056    433(21)           441.9474          387.8214                                                                   
  2866    52.8223    414(20)           443.9375          387.6953                                                                   
  2867    52.8390    419(20)           446.0461          387.5690                                                                   
  2868    52.8557    459(21)           448.1765          387.4429                                                                   
  2869    52.8724    478(22)           450.2266          387.3167                                                                   
  2870    52.8891    466(22)           452.1090          387.1905                                                                   
  2871    52.9059    464(22)           453.7381          387.0643                                                                   
  2872    52.9226    511(23)           455.0422          386.9381                                                                   
  2873    52.9393    448(21)           455.9669          386.8120                                                                   
  2874    52.9560    456(21)           456.4743          386.6858                                                                   
  2875    52.9727    475(22)           456.5685          386.5596                                                                   
  2876    52.9894    416(20)           456.2856          386.4334                                                                   
  2877    53.0061    475(22)           455.6978          386.3072                                                                   
  2878    53.0228    430(21)           454.9026          386.1810                                                                   
  2879    53.0396    418(20)           454.0146          386.0548                                                                   
  2880    53.0563    433(21)           453.1233          385.9286                                                                   
  2881    53.0730    437(21)           452.3076          385.8025                                                                   
  2882    53.0897    470(22)           451.6097          385.6763                                                                   
  2883    53.1064    453(21)           451.0354          385.5501                                                                   
  2884    53.1231    436(21)           450.5625          385.4239                                                                   
  2885    53.1398    440(21)           450.1502          385.2977                                                                   
  2886    53.1565    464(22)           449.7422          385.1715                                                                   
  2887    53.1732    425(21)           449.2979          385.0453                                                                   
  2888    53.1900    440(21)           448.7875          384.9191                                                                   
  2889    53.2067    439(21)           448.2251          384.7930                                                                   
  2890    53.2234    438(21)           447.6663          384.6668                                                                   
  2891    53.2401    456(21)           447.2153          384.5406                                                                   
  2892    53.2568    447(21)           447.0272          384.4144                                                                   
  2893    53.2735    471(22)           447.2900          384.2882                                                                   
  2894    53.2902    435(21)           448.2161          384.1620                                                                   
  2895    53.3069    414(20)           450.0242          384.0359                                                                   
  2896    53.3236    469(22)           452.9332          383.9097                                                                   
  2897    53.3404    424(21)           457.1470          383.7835                                                                   
  2898    53.3571    445(21)           462.8342          383.6573                                                                   
  2899    53.3738    490(22)           470.1077          383.5311                                                                   
  2900    53.3905    475(22)           479.0095          383.4049                                                                   
  2901    53.4072    491(22)           489.4945          383.2787                                                                   
  2902    53.4239    514(23)           501.3983          383.1526                                                                   
  2903    53.4406    468(22)           514.4437          383.0264                                                                   
  2904    53.4573    483(22)           528.2415          382.9002                                                                   
  2905    53.4740    537(23)           542.3057          382.7740                                                                   
  2906    53.4908    626(25)           556.0758          382.6478                                                                   
  2907    53.5075    608(25)           568.9683          382.5216                                                                   
  2908    53.5242    581(24)           580.3919          382.3954                                                                   
  2909    53.5409    593(24)           589.8250          382.2692                                                                   
  2910    53.5576    613(25)           596.8402          382.1431                                                                   
  2911    53.5743    621(25)           601.1476          382.0169                                                                   
  2912    53.5910    610(25)           602.6088          381.8907                                                                   
  2913    53.6077    607(25)           601.2353          381.7645                                                                   
  2914    53.6244    559(24)           597.1723          381.6383                                                                   
  2915    53.6412    586(24)           590.6750          381.5121                                                                   
  2916    53.6579    583(24)           582.0686          381.3860                                                                   
  2917    53.6746    601(25)           571.7335          381.2598                                                                   
  2918    53.6913    544(23)           560.0721          381.1336                                                                   
  2919    53.7080    567(24)           547.4806          381.0074                                                                   
  2920    53.7247    556(24)           534.3629          380.8812                                                                   
  2921    53.7414    544(23)           521.0917          380.7550                                                                   
  2922    53.7581    444(21)           508.0201          380.6288                                                                   
  2923    53.7748    479(22)           495.4616          380.5027                                                                   
  2924    53.7916    491(22)           483.7004          380.3765                                                                   
  2925    53.8083    448(21)           472.9683          380.2503                                                                   
  2926    53.8250    477(22)           463.4583          380.1241                                                                   
  2927    53.8417    434(21)           455.2822          379.9979                                                                   
  2928    53.8584    447(21)           448.5054          379.8717                                                                   
  2929    53.8751    402(20)           443.1237          379.7455                                                                   
  2930    53.8918    420(20)           439.0698          379.6194                                                                   
  2931    53.9085    450(21)           436.2180          379.4932                                                                   
  2932    53.9252    428(21)           434.3965          379.3670                                                                   
  2933    53.9420    441(21)           433.3999          379.2408                                                                   
  2934    53.9587    412(20)           433.0038          379.1146                                                                   
  2935    53.9754    425(21)           432.9880          378.9884                                                                   
  2936    53.9921    441(21)           433.1390          378.8622                                                                   
  2937    54.0088    422(21)           433.2795          378.7360                                                                   
  2938    54.0255    414(20)           433.2699          378.6098                                                                   
  2939    54.0422    463(22)           433.0122          378.4837                                                                   
  2940    54.0589    450(21)           432.4441          378.3575                                                                   
  2941    54.0756    490(22)           431.5419          378.2313                                                                   
  2942    54.0924    454(21)           430.3134          378.1051                                                                   
  2943    54.1091    461(21)           428.7889          377.9789                                                                   
  2944    54.1258    397(20)           427.0196          377.8528                                                                   
  2945    54.1425    409(20)           425.0690          377.7266                                                                   
  2946    54.1592    438(21)           423.0103          377.6004                                                                   
  2947    54.1759    430(21)           420.9212          377.4742                                                                   
  2948    54.1926    418(20)           418.8799          377.3480                                                                   
  2949    54.2093    385(20)           416.9608          377.2218                                                                   
  2950    54.2261    448(21)           415.2431          377.0956                                                                   
  2951    54.2428    408(20)           413.7863          376.9695                                                                   
  2952    54.2595    401(20)           412.6483          376.8433                                                                   
  2953    54.2762    402(20)           411.8661          376.7171                                                                   
  2954    54.2929    376(19)           411.4597          376.5909                                                                   
  2955    54.3096    390(20)           411.4325          376.4647                                                                   
  2956    54.3263    398(20)           411.7602          376.3385                                                                   
  2957    54.3430    384(20)           412.4007          376.2123                                                                   
  2958    54.3597    387(20)           413.2958          376.0861                                                                   
  2959    54.3764    383(20)           414.3813          375.9604                                                                   
  2960    54.3932    437(21)           415.6556          375.9093                                                                   
  2961    54.4099    454(21)           416.9763          375.8582                                                                   
  2962    54.4266    405(20)           418.2764          375.8072                                                                   
  2963    54.4433    398(20)           419.5035          375.7561                                                                   
  2964    54.4600    440(21)           420.6100          375.7050                                                                   
  2965    54.4767    436(21)           421.5707          375.6540                                                                   
  2966    54.4934    437(21)           422.3690          375.6029                                                                   
  2967    54.5101    403(20)           423.0104          375.5519                                                                   
  2968    54.5269    439(21)           423.5215          375.5008                                                                   
  2969    54.5436    427(21)           423.9511          375.4498                                                                   
  2970    54.5603    442(21)           424.3652          375.3987                                                                   
  2971    54.5770    405(20)           424.8410          375.3476                                                                   
  2972    54.5937    430(21)           425.4442          375.2966                                                                   
  2973    54.6104    400(20)           426.2503          375.2455                                                                   
  2974    54.6271    440(21)           427.3120          375.1945                                                                   
  2975    54.6438    406(20)           428.6516          375.1434                                                                   
  2976    54.6605    417(20)           430.2769          375.0923                                                                   
  2977    54.6773    398(20)           432.1551          375.0413                                                                   
  2978    54.6940    471(22)           434.2459          374.9902                                                                   
  2979    54.7107    455(21)           436.4843          374.9392                                                                   
  2980    54.7274    441(21)           438.7985          374.8881                                                                   
  2981    54.7441    423(21)           441.1119          374.8371                                                                   
  2982    54.7608    477(22)           443.3578          374.7860                                                                   
  2983    54.7775    460(21)           445.4780          374.7349                                                                   
  2984    54.7942    458(21)           447.4332          374.6839                                                                   
  2985    54.8109    460(21)           449.2040          374.6328                                                                   
  2986    54.8277    497(22)           450.7745          374.5818                                                                   
  2987    54.8444    470(22)           452.1577          374.5307                                                                   
  2988    54.8611    462(21)           453.3592          374.4796                                                                   
  2989    54.8778    483(22)           454.3928          374.4286                                                                   
  2990    54.8945    470(22)           455.2743          374.3775                                                                   
  2991    54.9112    442(21)           456.0241          374.3265                                                                   
  2992    54.9279    509(23)           456.6596          374.2754                                                                   
  2993    54.9446    420(20)           457.2037          374.2244                                                                   
  2994    54.9613    455(21)           457.6747          374.1733                                                                   
  2995    54.9781    457(21)           458.0915          374.1223                                                                   
  2996    54.9948    467(22)           458.4512          374.0712                                                                   
  2997    55.0115    479(22)           458.7422          374.0201                                                                   
  2998    55.0282    469(22)           458.9427          373.9691                                                                   
  2999    55.0449    413(20)           459.0203          373.9180                                                                   
  3000    55.0616    456(21)           458.9370          373.8669                                                                   
  3001    55.0783    512(23)           458.6586          373.8159                                                                   
  3002    55.0950    481(22)           458.1519          373.7648                                                                   
  3003    55.1117    438(21)           457.4054          373.7138                                                                   
  3004    55.1285    444(21)           456.4131          373.6627                                                                   
  3005    55.1452    441(21)           455.1848          373.6117                                                                   
  3006    55.1619    423(21)           453.7388          373.5606                                                                   
  3007    55.1786    494(22)           452.0982          373.5096                                                                   
  3008    55.1953    475(22)           450.3000          373.4585                                                                   
  3009    55.2120    473(22)           448.3803          373.4074                                                                   
  3010    55.2287    426(21)           446.3788          373.3564                                                                   
  3011    55.2454    488(22)           444.3475          373.3053                                                                   
  3012    55.2621    429(21)           442.3440          373.2542                                                                   
  3013    55.2789    441(21)           440.4286          373.2032                                                                   
  3014    55.2956    434(21)           438.6579          373.1521                                                                   
  3015    55.3123    450(21)           437.0811          373.1011                                                                   
  3016    55.3290    430(21)           435.7303          373.0500                                                                   
  3017    55.3457    406(20)           434.6240          372.9990                                                                   
  3018    55.3624    371(19)           433.7549          372.9479                                                                   
  3019    55.3791    439(21)           433.0958          372.8969                                                                   
  3020    55.3958    451(21)           432.6013          372.8458                                                                   
  3021    55.4126    417(20)           432.2149          372.7947                                                                   
  3022    55.4293    464(22)           431.8714          372.7437                                                                   
  3023    55.4460    442(21)           431.5084          372.6926                                                                   
  3024    55.4627    447(21)           431.0689          372.6415                                                                   
  3025    55.4794    438(21)           430.5095          372.5905                                                                   
  3026    55.4961    452(21)           429.8132          372.5394                                                                   
  3027    55.5128    477(22)           428.9786          372.4884                                                                   
  3028    55.5295    401(20)           428.0254          372.4373                                                                   
  3029    55.5462    436(21)           426.9735          372.3863                                                                   
  3030    55.5630    400(20)           425.8863          372.3352                                                                   
  3031    55.5797    419(20)           424.7888          372.2841                                                                   
  3032    55.5964    425(21)           423.7233          372.2331                                                                   
  3033    55.6131    445(21)           422.7122          372.1820                                                                   
  3034    55.6298    439(21)           421.7918          372.1310                                                                   
  3035    55.6465    400(20)           420.9787          372.0799                                                                   
  3036    55.6632    455(21)           420.2885          372.0288                                                                   
  3037    55.6799    444(21)           419.7377          371.9778                                                                   
  3038    55.6966    438(21)           419.3365          371.9267                                                                   
  3039    55.7134    413(20)           419.1156          371.8757                                                                   
  3040    55.7301    417(20)           419.0860          371.8246                                                                   
  3041    55.7468    403(20)           419.2725          371.7736                                                                   
  3042    55.7635    440(21)           419.6915          371.7225                                                                   
  3043    55.7802    421(21)           420.3619          371.6714                                                                   
  3044    55.7969    428(21)           421.2819          371.6204                                                                   
  3045    55.8136    434(21)           422.4329          371.5693                                                                   
  3046    55.8303    393(20)           423.7779          371.5182                                                                   
  3047    55.8470    387(20)           425.2610          371.4672                                                                   
  3048    55.8638    416(20)           426.8133          371.4162                                                                   
  3049    55.8805    414(20)           428.3582          371.3651                                                                   
  3050    55.8972    406(20)           429.8256          371.3140                                                                   
  3051    55.9139    421(21)           431.1406          371.2630                                                                   
  3052    55.9306    419(20)           432.2608          371.2119                                                                   
  3053    55.9473    455(21)           433.1573          371.1609                                                                   
  3054    55.9640    390(20)           433.8239          371.1098                                                                   
  3055    55.9807    460(21)           434.2675          371.0587                                                                   
  3056    55.9974    444(21)           434.5071          371.0077                                                                   
  3057    56.0142    457(21)           434.5702          370.9566                                                                   
  3058    56.0309    381(20)           434.4775          370.9056                                                                   
  3059    56.0476    420(20)           434.2538          370.8545                                                                   
  3060    56.0643    447(21)           433.9100          370.8035                                                                   
  3061    56.0810    422(21)           433.4648          370.7524                                                                   
  3062    56.0977    422(21)           432.9376          370.7013                                                                   
  3063    56.1144    429(21)           432.3518          370.6503                                                                   
  3064    56.1311    411(20)           431.7356          370.5992                                                                   
  3065    56.1478    444(21)           431.1173          370.5482                                                                   
  3066    56.1646    411(20)           430.5359          370.4971                                                                   
  3067    56.1813    468(22)           430.0228          370.4460                                                                   
  3068    56.1980    451(21)           429.6061          370.3950                                                                   
  3069    56.2147    436(21)           429.3005          370.3439                                                                   
  3070    56.2314    418(20)           429.1051          370.2929                                                                   
  3071    56.2481    410(20)           429.0004          370.2418                                                                   
  3072    56.2648    447(21)           428.9513          370.1908                                                                   
  3073    56.2815    440(21)           428.9048          370.1397                                                                   
  3074    56.2982    450(21)           428.8003          370.0886                                                                   
  3075    56.3150    452(21)           428.5813          370.0376                                                                   
  3076    56.3317    446(21)           428.2026          369.9865                                                                   
  3077    56.3484    450(21)           427.6412          369.9355                                                                   
  3078    56.3651    458(21)           426.9044          369.8844                                                                   
  3079    56.3818    427(21)           426.0321          369.8333                                                                   
  3080    56.3985    424(21)           425.0970          369.7823                                                                   
  3081    56.4152    456(21)           424.2005          369.7312                                                                   
  3082    56.4319    409(20)           423.4637          369.6802                                                                   
  3083    56.4487    445(21)           423.0267          369.6291                                                                   
  3084    56.4654    410(20)           423.0293          369.5781                                                                   
  3085    56.4821    419(20)           423.6129          369.5270                                                                   
  3086    56.4988    416(20)           424.9083          369.4760                                                                   
  3087    56.5155    466(22)           427.0266          369.4249                                                                   
  3088    56.5322    448(21)           430.0497          369.3738                                                                   
  3089    56.5489    394(20)           434.0211          369.3228                                                                   
  3090    56.5656    457(21)           438.9351          369.2717                                                                   
  3091    56.5823    456(21)           444.7287          369.2206                                                                   
  3092    56.5990    454(21)           451.2749          369.1696                                                                   
  3093    56.6158    472(22)           458.3951          369.1185                                                                   
  3094    56.6325    470(22)           465.8514          369.0675                                                                   
  3095    56.6492    544(23)           473.3666          369.0164                                                                   
  3096    56.6659    481(22)           480.6384          368.9654                                                                   
  3097    56.6826    495(22)           487.3678          368.9143                                                                   
  3098    56.6993    551(23)           493.2699          368.8633                                                                   
  3099    56.7160    524(23)           498.1030          368.8122                                                                   
  3100    56.7327    529(23)           501.6812          368.7611                                                                   
  3101    56.7495    545(23)           503.8827          368.7101                                                                   
  3102    56.7662    533(23)           504.6492          368.6590                                                                   
  3103    56.7829    564(24)           503.9882          368.6079                                                                   
  3104    56.7996    495(22)           501.9640          368.5569                                                                   
  3105    56.8163    497(22)           498.6972          368.5058                                                                   
  3106    56.8330    487(22)           494.3469          368.4548                                                                   
  3107    56.8497    495(22)           489.0991          368.4037                                                                   
  3108    56.8664    477(22)           483.1626          368.3527                                                                   
  3109    56.8831    472(22)           476.7452          368.3016                                                                   
  3110    56.8999    476(22)           470.0449          368.2505                                                                   
  3111    56.9166    485(22)           463.2464          368.1995                                                                   
  3112    56.9333    426(21)           456.5113          368.1484                                                                   
  3113    56.9500    397(20)           449.9768          368.0974                                                                   
  3114    56.9667    437(21)           443.7478          368.0463                                                                   
  3115    56.9834    451(21)           437.9180          367.9952                                                                   
  3116    57.0001    443(21)           432.5443          367.9442                                                                   
  3117    57.0168    471(22)           427.6698          367.8931                                                                   
  3118    57.0335    450(21)           423.3130          367.8421                                                                   
  3119    57.0503    437(21)           419.4820          367.7910                                                                   
  3120    57.0670    419(20)           416.1726          367.7400                                                                   
  3121    57.0837    464(22)           413.3774          367.6889                                                                   
  3122    57.1004    419(20)           411.0773          367.6378                                                                   
  3123    57.1171    402(20)           409.2495          367.5868                                                                   
  3124    57.1338    413(20)           407.8692          367.5357                                                                   
  3125    57.1505    407(20)           406.9027          367.4847                                                                   
  3126    57.1672    412(20)           406.3094          367.4336                                                                   
  3127    57.1839    421(21)           406.0572          367.3825                                                                   
  3128    57.2007    402(20)           406.1024          367.3315                                                                   
  3129    57.2174    405(20)           406.4000          367.2804                                                                   
  3130    57.2341    408(20)           406.9100          367.2294                                                                   
  3131    57.2508    410(20)           407.5896          367.1783                                                                   
  3132    57.2675    409(20)           408.3953          367.1273                                                                   
  3133    57.2842    390(20)           409.2794          367.0762                                                                   
  3134    57.3009    359(19)           410.1975          367.0251                                                                   
  3135    57.3176    475(22)           411.0960          366.9741                                                                   
  3136    57.3343    398(20)           411.9302          366.9230                                                                   
  3137    57.3511    395(20)           412.6479          366.8719                                                                   
  3138    57.3678    393(20)           413.2090          366.8209                                                                   
  3139    57.3845    375(19)           413.5815          366.7699                                                                   
  3140    57.4012    405(20)           413.7434          366.7188                                                                   
  3141    57.4179    431(21)           413.6803          366.6677                                                                   
  3142    57.4346    396(20)           413.3859          366.6167                                                                   
  3143    57.4513    425(21)           412.8624          366.5656                                                                   
  3144    57.4680    407(20)           412.1130          366.5146                                                                   
  3145    57.4847    418(20)           411.1489          366.4635                                                                   
  3146    57.5015    423(21)           409.9341          366.3596                                                                   
  3147    57.5182    422(21)           408.4731          366.1766                                                                   
  3148    57.5349    373(19)           406.8847          365.9936                                                                   
  3149    57.5516    420(20)           405.2246          365.8106                                                                   
  3150    57.5683    372(19)           403.5554          365.6277                                                                   
  3151    57.5850    378(19)           401.9553          365.4447                                                                   
  3152    57.6017    356(19)           400.4957          365.2617                                                                   
  3153    57.6184    400(20)           399.2461          365.0787                                                                   
  3154    57.6351    380(19)           398.2678          364.8957                                                                   
  3155    57.6519    369(19)           397.6071          364.7127                                                                   
  3156    57.6686    395(20)           397.2959          364.5297                                                                   
  3157    57.6853    377(19)           397.3464          364.3467                                                                   
  3158    57.7020    442(21)           397.7544          364.1638                                                                   
  3159    57.7187    381(20)           398.4942          363.9807                                                                   
  3160    57.7354    393(20)           399.5331          363.7978                                                                   
  3161    57.7521    406(20)           400.8211          363.6147                                                                   
  3162    57.7688    386(20)           402.3049          363.4318                                                                   
  3163    57.7855    405(20)           403.9308          363.2488                                                                   
  3164    57.8023    408(20)           405.6529          363.0658                                                                   
  3165    57.8190    380(19)           407.4327          362.8828                                                                   
  3166    57.8357    417(20)           409.2550          362.6998                                                                   
  3167    57.8524    433(21)           411.1140          362.5168                                                                   
  3168    57.8691    404(20)           413.0195          362.3338                                                                   
  3169    57.8858    410(20)           414.9926          362.1508                                                                   
  3170    57.9025    426(21)           417.0570          361.9678                                                                   
  3171    57.9192    431(21)           419.2329          361.7849                                                                   
  3172    57.9360    383(20)           421.5344          361.6019                                                                   
  3173    57.9527    400(20)           423.9576          361.4189                                                                   
  3174    57.9694    409(20)           426.4796          361.2359                                                                   
  3175    57.9861    438(21)           429.0627          361.0529                                                                   
  3176    58.0028    418(20)           431.6489          360.8699                                                                   
  3177    58.0195    438(21)           434.1654          360.6869                                                                   
  3178    58.0362    464(22)           436.5300          360.5039                                                                   
  3179    58.0529    460(21)           438.6680          360.3210                                                                   
  3180    58.0696    466(22)           440.5111          360.1379                                                                   
  3181    58.0864    466(22)           442.0044          359.9550                                                                   
  3182    58.1031    407(20)           443.1186          359.7719                                                                   
  3183    58.1198    441(21)           443.8484          359.5890                                                                   
  3184    58.1365    419(20)           444.2098          359.4060                                                                   
  3185    58.1532    423(21)           444.2301          359.2230                                                                   
  3186    58.1699    402(20)           443.9409          359.0400                                                                   
  3187    58.1866    431(21)           443.3691          358.8570                                                                   
  3188    58.2033    442(21)           442.5397          358.6740                                                                   
  3189    58.2200    439(21)           441.4602          358.4910                                                                   
  3190    58.2368    433(21)           440.1300          358.3080                                                                   
  3191    58.2535    456(21)           438.5393          358.1250                                                                   
  3192    58.2702    452(21)           436.6757          357.9421                                                                   
  3193    58.2869    486(22)           434.5347          357.7591                                                                   
  3194    58.3036    424(21)           432.1135          357.5761                                                                   
  3195    58.3203    420(20)           429.4235          357.3931                                                                   
  3196    58.3370    437(21)           426.4938          357.2101                                                                   
  3197    58.3537    428(21)           423.3645          357.0271                                                                   
  3198    58.3704    412(20)           420.0922          356.8441                                                                   
  3199    58.3872    444(21)           416.7394          356.6611                                                                   
  3200    58.4039    416(20)           413.3721          356.4781                                                                   
  3201    58.4206    428(21)           410.0515          356.2952                                                                   
  3202    58.4373    417(20)           406.8368          356.1122                                                                   
  3203    58.4540    411(20)           403.7750          355.9292                                                                   
  3204    58.4707    403(20)           400.9143          355.7462                                                                   
  3205    58.4874    440(21)           398.2869          355.5632                                                                   
  3206    58.5041    418(20)           395.9285          355.3802                                                                   
  3207    58.5208    396(20)           393.8655          355.1972                                                                   
  3208    58.5376    368(19)           392.1219          355.0143                                                                   
  3209    58.5543    423(21)           390.7140          354.8312                                                                   
  3210    58.5710    390(20)           389.6532          354.6483                                                                   
  3211    58.5877    408(20)           388.9422          354.4652                                                                   
  3212    58.6044    385(20)           388.5746          354.2823                                                                   
  3213    58.6211    370(19)           388.5315          354.0993                                                                   
  3214    58.6378    362(19)           388.7904          353.9163                                                                   
  3215    58.6545    354(19)           389.3097          353.7333                                                                   
  3216    58.6712    377(19)           390.0441          353.5503                                                                   
  3217    58.6880    370(19)           390.9369          353.3673                                                                   
  3218    58.7047    394(20)           391.9259          353.1843                                                                   
  3219    58.7214    389(20)           392.9431          353.0013                                                                   
  3220    58.7381    403(20)           393.9203          352.8183                                                                   
  3221    58.7548    406(20)           394.7913          352.6354                                                                   
  3222    58.7715    390(20)           395.4968          352.4524                                                                   
  3223    58.7882    389(20)           395.9872          352.2693                                                                   
  3224    58.8049    424(21)           396.2266          352.0864                                                                   
  3225    58.8216    369(19)           396.1920          351.9034                                                                   
  3226    58.8384    444(21)           395.8746          351.7204                                                                   
  3227    58.8551    453(21)           395.2909          351.5374                                                                   
  3228    58.8718    422(21)           394.4488          351.3544                                                                   
  3229    58.8885    447(21)           393.3695          351.1714                                                                   
  3230    58.9052    422(21)           392.0813          350.9884                                                                   
  3231    58.9219    357(19)           390.6078          350.8055                                                                   
  3232    58.9386    405(20)           388.9706          350.6224                                                                   
  3233    58.9553    383(20)           387.2060          350.4395                                                                   
  3234    58.9720    378(19)           385.3349          350.2565                                                                   
  3235    58.9888    356(19)           383.3883          350.0735                                                                   
  3236    59.0055    345(19)           381.3949          349.8905                                                                   
  3237    59.0222    352(19)           379.3913          349.7075                                                                   
  3238    59.0389    396(20)           377.4064          349.5245                                                                   
  3239    59.0556    380(19)           375.4717          349.3415                                                                   
  3240    59.0723    356(19)           373.6208          349.1585                                                                   
  3241    59.0890    373(19)           371.8752          348.9756                                                                   
  3242    59.1057    367(19)           370.2684          348.7926                                                                   
  3243    59.1225    389(20)           368.8236          348.6096                                                                   
  3244    59.1392    383(20)           367.5654          348.4266                                                                   
  3245    59.1559    366(19)           366.5159          348.2436                                                                   
  3246    59.1726    356(19)           365.6958          348.0606                                                                   
  3247    59.1893    345(19)           365.1227          347.8776                                                                   
  3248    59.2060    357(19)           364.8101          347.6946                                                                   
  3249    59.2227    346(19)           364.7715          347.5116                                                                   
  3250    59.2394    347(19)           365.0114          347.3286                                                                   
  3251    59.2561    325(18)           365.5254          347.1457                                                                   
  3252    59.2729    393(20)           366.3042          346.9626                                                                   
  3253    59.2896    357(19)           367.3289          346.7797                                                                   
  3254    59.3063    380(19)           368.5709          346.5967                                                                   
  3255    59.3230    366(19)           369.9938          346.4137                                                                   
  3256    59.3397    359(19)           371.5519          346.2307                                                                   
  3257    59.3564    368(19)           373.1943          346.0477                                                                   
  3258    59.3731    381(20)           374.8685          345.8647                                                                   
  3259    59.3898    378(19)           376.5194          345.6817                                                                   
  3260    59.4065    398(20)           378.0960          345.4987                                                                   
  3261    59.4233    370(19)           379.5544          345.3157                                                                   
  3262    59.4400    387(20)           380.8559          345.1328                                                                   
  3263    59.4567    402(20)           381.9749          344.9498                                                                   
  3264    59.4734    380(19)           382.8983          344.7668                                                                   
  3265    59.4901    344(19)           383.6229          344.5838                                                                   
  3266    59.5068    377(19)           384.1544          344.4008                                                                   
  3267    59.5235    368(19)           384.5065          344.2178                                                                   
  3268    59.5402    363(19)           384.6887          344.0348                                                                   
  3269    59.5569    380(19)           384.7247          343.8518                                                                   
  3270    59.5737    377(19)           384.6284          343.6689                                                                   
  3271    59.5904    377(19)           384.4175          343.4859                                                                   
  3272    59.6071    370(19)           384.1055          343.3029                                                                   
  3273    59.6238    397(20)           383.7113          343.1198                                                                   
  3274    59.6405    375(19)           383.2536          342.9369                                                                   
  3275    59.6572    385(20)           382.7525          342.7539                                                                   
  3276    59.6739    379(19)           382.2267          342.5709                                                                   
  3277    59.6906    362(19)           381.6963          342.3879                                                                   
  3278    59.7073    401(20)           381.1796          342.2049                                                                   
  3279    59.7241    367(19)           380.6929          342.0219                                                                   
  3280    59.7408    390(20)           380.2474          341.8389                                                                   
  3281    59.7575    392(20)           379.8517          341.6559                                                                   
  3282    59.7742    400(20)           379.5114          341.4729                                                                   
  3283    59.7909    339(18)           379.2288          341.2900                                                                   
  3284    59.8076    360(19)           379.0023          341.1070                                                                   
  3285    59.8243    367(19)           378.8247          340.9240                                                                   
  3286    59.8410    373(19)           378.6855          340.7410                                                                   
  3287    59.8577    394(20)           378.5696          340.5580                                                                   
  3288    59.8745    369(19)           378.4563          340.3750                                                                   
  3289    59.8912    431(21)           378.3253          340.1920                                                                   
  3290    59.9079    386(20)           378.1562          340.0090                                                                   
  3291    59.9246    377(19)           377.9301          339.8260                                                                   
  3292    59.9413    405(20)           377.6366          339.6431                                                                   
  3293    59.9580    369(19)           377.2751          339.4601                                                                   
  3294    59.9747    400(20)           376.8526          339.2771                                                                   
  3295    59.9914    396(20)           376.3855          339.0941                                                                   
  3296    60.0081    367(19)           375.8940          338.9111                                                                   
  3297    60.0249    408(20)           375.4091          338.7281                                                                   
  3298    60.0416    397(20)           374.9531          338.5451                                                                   
  3299    60.0583    356(19)           374.5492          338.3622                                                                   
  3300    60.0750    391(20)           374.2156          338.1791                                                                   
  3301    60.0917    372(19)           373.9619          337.9962                                                                   
  3302    60.1084    361(19)           373.7974          337.8131                                                                   
  3303    60.1251    372(19)           373.7208          337.6302                                                                   
  3304    60.1418    348(19)           373.7268          337.4472                                                                   
  3305    60.1586    364(19)           373.8062          337.2642                                                                   
  3306    60.1753    352(19)           373.9414          337.0812                                                                   
  3307    60.1920    397(20)           374.1177          336.8982                                                                   
  3308    60.2087    395(20)           374.3123          336.7152                                                                   
  3309    60.2254    367(19)           374.5019          336.5322                                                                   
  3310    60.2421    376(19)           374.6618          336.3492                                                                   
  3311    60.2588    389(20)           374.7658          336.1662                                                                   
  3312    60.2755    333(18)           374.7840          335.9833                                                                   
  3313    60.2922    383(20)           374.6987          335.8003                                                                   
  3314    60.3090    367(19)           374.4767          335.6173                                                                   
  3315    60.3257    355(19)           374.0945          335.4343                                                                   
  3316    60.3424    362(19)           373.5266          335.2513                                                                   
  3317    60.3591    344(19)           372.7597          335.0683                                                                   
  3318    60.3758    396(20)           371.7845          334.8853                                                                   
  3319    60.3925    357(19)           370.6022          334.7023                                                                   
  3320    60.4092    378(19)           369.2260          334.5193                                                                   
  3321    60.4259    356(19)           367.6757          334.3364                                                                   
  3322    60.4426    387(20)           365.9769          334.1534                                                                   
  3323    60.4594    378(19)           364.1660          333.9703                                                                   
  3324    60.4761    381(20)           362.2719          333.7874                                                                   
  3325    60.4928    331(18)           360.3253          333.6044                                                                   
  3326    60.5095    401(20)           358.3535          333.4214                                                                   
  3327    60.5262    367(19)           356.3862          333.2384                                                                   
  3328    60.5429    354(19)           354.4469          333.0554                                                                   
  3329    60.5596    352(19)           352.5581          332.8724                                                                   
  3330    60.5763    367(19)           350.7403          332.6894                                                                   
  3331    60.5930    376(19)           349.0141          332.5064                                                                   
  3332    60.6098    375(19)           347.3983          332.3234                                                                   
  3333    60.6265    378(19)           345.9106          332.1405                                                                   
  3334    60.6432    354(19)           344.5656          331.9575                                                                   
  3335    60.6599    370(19)           343.4353          331.8331                                                                   
  3336    60.6766    323(18)           342.6101          331.8490                                                                   
  3337    60.6933    376(19)           341.9562          331.8648                                                                   
  3338    60.7100    354(19)           341.4763          331.8807                                                                   
  3339    60.7267    414(20)           341.1660          331.8966                                                                   
  3340    60.7434    354(19)           341.0181          331.9125                                                                   
  3341    60.7602    367(19)           341.0193          331.9283                                                                   
  3342    60.7769    363(19)           341.1527          331.9442                                                                   
  3343    60.7936    366(19)           341.3989          331.9601                                                                   
  3344    60.8103    344(19)           341.7372          331.9760                                                                   
  3345    60.8270    320(18)           342.1416          331.9919                                                                   
  3346    60.8437    339(18)           342.5906          332.0077                                                                   
  3347    60.8604    376(19)           343.0635          332.0236                                                                   
  3348    60.8771    343(19)           343.5433          332.0395                                                                   
  3349    60.8938    351(19)           344.0114          332.0554                                                                   
  3350    60.9106    331(18)           344.4605          332.0712                                                                   
  3351    60.9273    335(18)           344.8835          332.0871                                                                   
  3352    60.9440    340(18)           345.2783          332.1030                                                                   
  3353    60.9607    345(19)           345.6476          332.1189                                                                   
  3354    60.9774    339(18)           345.9972          332.1347                                                                   
  3355    60.9941    333(18)           346.3339          332.1506                                                                   
  3356    61.0108    360(19)           346.6703          332.1665                                                                   
  3357    61.0275    362(19)           347.0163          332.1824                                                                   
  3358    61.0442    336(18)           347.3834          332.1982                                                                   
  3359    61.0610    331(18)           347.7815          332.2141                                                                   
  3360    61.0777    366(19)           348.2190          332.2300                                                                   
  3361    61.0944    359(19)           348.7044          332.2459                                                                   
  3362    61.1111    370(19)           349.2440          332.2617                                                                   
  3363    61.1278    376(19)           349.8468          332.2776                                                                   
  3364    61.1445    374(19)           350.5149          332.2935                                                                   
  3365    61.1612    360(19)           351.2571          332.3094                                                                   
  3366    61.1779    374(19)           352.0812          332.3253                                                                   
  3367    61.1946    371(19)           352.9940          332.3412                                                                   
  3368    61.2114    327(18)           354.0011          332.3570                                                                   
  3369    61.2281    374(19)           355.1078          332.3729                                                                   
  3370    61.2448    346(19)           356.3123          332.3888                                                                   
  3371    61.2615    334(18)           357.6093          332.4047                                                                   
  3372    61.2782    374(19)           358.9853          332.4205                                                                   
  3373    61.2949    379(19)           360.4213          332.4364                                                                   
  3374    61.3116    404(20)           361.8863          332.4523                                                                   
  3375    61.3283    360(19)           363.3504          332.4682                                                                   
  3376    61.3451    385(20)           364.7768          332.4840                                                                   
  3377    61.3618    352(19)           366.1283          332.4999                                                                   
  3378    61.3785    366(19)           367.3703          332.5158                                                                   
  3379    61.3952    367(19)           368.4766          332.5317                                                                   
  3380    61.4119    361(19)           369.4270          332.5475                                                                   
  3381    61.4286    340(18)           370.2139          332.5634                                                                   
  3382    61.4453    325(18)           370.8419          332.5793                                                                   
  3383    61.4620    388(20)           371.3252          332.5952                                                                   
  3384    61.4787    355(19)           371.6860          332.6111                                                                   
  3385    61.4955    404(20)           371.9521          332.6270                                                                   
  3386    61.5122    377(19)           372.1545          332.6428                                                                   
  3387    61.5289    369(19)           372.3224          332.6587                                                                   
  3388    61.5456    375(19)           372.4851          332.6746                                                                   
  3389    61.5623    341(18)           372.6694          332.6905                                                                   
  3390    61.5790    360(19)           372.8981          332.7063                                                                   
  3391    61.5957    371(19)           373.1905          332.7222                                                                   
  3392    61.6124    345(19)           373.5625          332.7381                                                                   
  3393    61.6291    331(18)           374.0233          332.7540                                                                   
  3394    61.6459    373(19)           374.5759          332.7698                                                                   
  3395    61.6626    354(19)           375.2145          332.7857                                                                   
  3396    61.6793    373(19)           375.9244          332.8016                                                                   
  3397    61.6960    370(19)           376.6821          332.8175                                                                   
  3398    61.7127    410(20)           377.4543          332.8333                                                                   
  3399    61.7294    350(19)           378.2047          332.8492                                                                   
  3400    61.7461    326(18)           378.8916          332.8651                                                                   
  3401    61.7628    357(19)           379.4720          332.8810                                                                   
  3402    61.7795    380(19)           379.9060          332.8969                                                                   
  3403    61.7963    388(20)           380.1592          332.9127                                                                   
  3404    61.8130    383(20)           380.2056          332.9286                                                                   
  3405    61.8297    348(19)           380.0269          332.9445                                                                   
  3406    61.8464    410(20)           379.6130          332.9604                                                                   
  3407    61.8631    396(20)           378.9620          332.9762                                                                   
  3408    61.8798    406(20)           378.0811          332.9921                                                                   
  3409    61.8965    373(19)           376.9843          333.0080                                                                   
  3410    61.9132    358(19)           375.6923          333.0239                                                                   
  3411    61.9299    381(20)           374.2322          333.0397                                                                   
  3412    61.9467    367(19)           372.6375          333.0556                                                                   
  3413    61.9634    427(21)           370.9462          333.0715                                                                   
  3414    61.9801    355(19)           369.1968          333.0874                                                                   
  3415    61.9968    361(19)           367.4316          333.1032                                                                   
  3416    62.0135    369(19)           365.6911          333.1191                                                                   
  3417    62.0302    358(19)           364.0138          333.1350                                                                   
  3418    62.0469    361(19)           362.4322          333.1509                                                                   
  3419    62.0636    362(19)           360.9756          333.1668                                                                   
  3420    62.0803    341(18)           359.6659          333.1826                                                                   
  3421    62.0971    336(18)           358.5181          333.1985                                                                   
  3422    62.1138    346(19)           357.5416          333.2144                                                                   
  3423    62.1305    359(19)           356.7377          333.2303                                                                   
  3424    62.1472    296(17)           356.1004          333.2462                                                                   
  3425    62.1639    371(19)           355.6189          333.2620                                                                   
  3426    62.1806    338(18)           355.2778          333.2779                                                                   
  3427    62.1973    323(18)           355.0593          333.2938                                                                   
  3428    62.2140    372(19)           354.9426          333.3097                                                                   
  3429    62.2307    371(19)           354.9061          333.3255                                                                   
  3430    62.2475    392(20)           354.9317          333.3414                                                                   
  3431    62.2642    333(18)           355.0007          333.3573                                                                   
  3432    62.2809    344(19)           355.1007          333.3732                                                                   
  3433    62.2976    341(18)           355.2204          333.3890                                                                   
  3434    62.3143    339(18)           355.3531          333.4049                                                                   
  3435    62.3310    380(19)           355.4955          333.4208                                                                   
  3436    62.3477    381(20)           355.6463          333.4367                                                                   
  3437    62.3644    393(20)           355.8053          333.4525                                                                   
  3438    62.3811    351(19)           355.9721          333.4684                                                                   
  3439    62.3979    374(19)           356.1435          333.4843                                                                   
  3440    62.4146    312(18)           356.3173          333.5002                                                                   
  3441    62.4313    350(19)           356.4878          333.5161                                                                   
  3442    62.4480    347(19)           356.6487          333.5320                                                                   
  3443    62.4647    367(19)           356.7916          333.5478                                                                   
  3444    62.4814    329(18)           356.9079          333.5637                                                                   
  3445    62.4981    347(19)           356.9893          333.5796                                                                   
  3446    62.5148    343(19)           357.0269          333.5955                                                                   
  3447    62.5316    303(17)           357.0147          333.6113                                                                   
  3448    62.5483    378(19)           356.9485          333.6272                                                                   
  3449    62.5650    341(18)           356.8231          333.6431                                                                   
  3450    62.5817    348(19)           356.6374          333.6590                                                                   
  3451    62.5984    368(19)           356.3918          333.6748                                                                   
  3452    62.6151    361(19)           356.0857          333.6907                                                                   
  3453    62.6318    346(19)           355.7208          333.7066                                                                   
  3454    62.6485    337(18)           355.2981          333.7225                                                                   
  3455    62.6652    372(19)           354.8179          333.7383                                                                   
  3456    62.6820    351(19)           354.2842          333.7542                                                                   
  3457    62.6987    361(19)           353.7017          333.7701                                                                   
  3458    62.7154    341(18)           353.0754          333.7860                                                                   
  3459    62.7321    350(19)           352.4148          333.8018                                                                   
  3460    62.7488    327(18)           351.7310          333.8177                                                                   
  3461    62.7655    362(19)           351.0399          333.8336                                                                   
  3462    62.7822    330(18)           350.3577          333.8495                                                                   
  3463    62.7989    335(18)           349.7046          333.8654                                                                   
  3464    62.8156    338(18)           349.1019          333.8812                                                                   
  3465    62.8324    358(19)           348.5691          333.8971                                                                   
  3466    62.8491    352(19)           348.1288          333.9130                                                                   
  3467    62.8658    324(18)           347.8037          333.9289                                                                   
  3468    62.8825    335(18)           347.6143          333.9447                                                                   
  3469    62.8992    343(19)           347.5816          333.9606                                                                   
  3470    62.9159    339(18)           347.7256          333.9765                                                                   
  3471    62.9326    388(20)           348.0621          333.9924                                                                   
  3472    62.9493    377(19)           348.6066          334.0082                                                                   
  3473    62.9660    359(19)           349.3706          334.0241                                                                   
  3474    62.9828    360(19)           350.3618          334.0400                                                                   
  3475    62.9995    338(18)           351.5804          334.0559                                                                   
  3476    63.0162    343(19)           353.0226          334.0718                                                                   
  3477    63.0329    397(20)           354.6773          334.0876                                                                   
  3478    63.0496    338(18)           356.5238          334.1035                                                                   
  3479    63.0663    358(19)           358.5359          334.1194                                                                   
  3480    63.0830    358(19)           360.6804          334.1353                                                                   
  3481    63.0997    373(19)           362.9144          334.1512                                                                   
  3482    63.1164    346(19)           365.1926          334.1670                                                                   
  3483    63.1332    376(19)           367.4676          334.1829                                                                   
  3484    63.1499    371(19)           369.6908          334.1988                                                                   
  3485    63.1666    367(19)           371.8157          334.2147                                                                   
  3486    63.1833    360(19)           373.7990          334.2305                                                                   
  3487    63.2000    372(19)           375.6063          334.2464                                                                   
  3488    63.2167    384(20)           377.2084          334.2623                                                                   
  3489    63.2334    392(20)           378.5853          334.2782                                                                   
  3490    63.2501    376(19)           379.7263          334.2940                                                                   
  3491    63.2668    384(20)           380.6305          334.3099                                                                   
  3492    63.2836    367(19)           381.3029          334.3258                                                                   
  3493    63.3003    397(20)           381.7591          334.3417                                                                   
  3494    63.3170    378(19)           382.0182          334.3575                                                                   
  3495    63.3337    376(19)           382.1045          334.3734                                                                   
  3496    63.3504    386(20)           382.0442          334.3893                                                                   
  3497    63.3671    386(20)           381.8649          334.4052                                                                   
  3498    63.3838    390(20)           381.5915          334.4211                                                                   
  3499    63.4005    373(19)           381.2468          334.4370                                                                   
  3500    63.4172    338(18)           380.8499          334.4528                                                                   
  3501    63.4340    371(19)           380.4149          334.4687                                                                   
  3502    63.4507    390(20)           379.9510          334.4846                                                                   
  3503    63.4674    367(19)           379.4637          334.5005                                                                   
  3504    63.4841    389(20)           378.9548          334.5163                                                                   
  3505    63.5008    400(20)           378.4221          334.5322                                                                   
  3506    63.5175    362(19)           377.8611          334.5481                                                                   
  3507    63.5342    342(18)           377.2693          334.5640                                                                   
  3508    63.5509    379(19)           376.6408          334.5798                                                                   
  3509    63.5676    360(19)           375.9722          334.5957                                                                   
  3510    63.5844    364(19)           375.2636          334.6116                                                                   
  3511    63.6011    383(20)           374.5163          334.6275                                                                   
  3512    63.6178    377(19)           373.7333          334.6433                                                                   
  3513    63.6345    337(18)           372.9199          334.6592                                                                   
  3514    63.6512    380(19)           372.0795          334.6751                                                                   
  3515    63.6679    372(19)           371.2166          334.6910                                                                   
  3516    63.6846    394(20)           370.3335          334.7068                                                                   
  3517    63.7013    381(20)           369.4298          334.7227                                                                   
  3518    63.7181    317(18)           368.5064          334.7386                                                                   
  3519    63.7348    387(20)           367.5626          334.7545                                                                   
  3520    63.7515    360(19)           366.6559          334.8291                                                                   
  3521    63.7682    363(19)           365.7431          334.9199                                                                   
  3522    63.7849    344(19)           364.8163          335.0107                                                                   
  3523    63.8016    392(20)           363.8730          335.1015                                                                   
  3524    63.8183    333(18)           362.9185          335.1923                                                                   
  3525    63.8350    367(19)           361.9575          335.2831                                                                   
  3526    63.8517    385(20)           360.9950          335.3739                                                                   
  3527    63.8685    366(19)           360.0351          335.4647                                                                   
  3528    63.8852    363(19)           359.0829          335.5555                                                                   
  3529    63.9019    350(19)           358.1402          335.6463                                                                   
  3530    63.9186    371(19)           357.2124          335.7371                                                                   
  3531    63.9353    387(20)           356.3016          335.8279                                                                   
  3532    63.9520    363(19)           355.4126          335.9187                                                                   
  3533    63.9687    337(18)           354.5492          336.0095                                                                   
  3534    63.9854    383(20)           353.7130          336.1003                                                                   
  3535    64.0021    356(19)           352.9102          336.1911                                                                   
  3536    64.0189    404(20)           352.1448          336.2819                                                                   
  3537    64.0356    377(19)           351.4232          336.3727                                                                   
  3538    64.0523    364(19)           350.7543          336.4635                                                                   
  3539    64.0690    366(19)           350.1469          336.5543                                                                   
  3540    64.0857    330(18)           349.6106          336.6451                                                                   
  3541    64.1024    367(19)           349.1580          336.7359                                                                   
  3542    64.1191    386(20)           348.8031          336.8267                                                                   
  3543    64.1358    308(18)           348.5615          336.9175                                                                   
  3544    64.1525    387(20)           348.4455          337.0083                                                                   
  3545    64.1693    371(19)           348.4779          337.0991                                                                   
  3546    64.1860    369(19)           348.6708          337.1899                                                                   
  3547    64.2027    335(18)           349.0409          337.2807                                                                   
  3548    64.2194    345(19)           349.6011          337.3715                                                                   
  3549    64.2361    317(18)           350.3622          337.4623                                                                   
  3550    64.2528    320(18)           351.3315          337.5531                                                                   
  3551    64.2695    355(19)           352.5119          337.6439                                                                   
  3552    64.2862    353(19)           353.8997          337.7347                                                                   
  3553    64.3029    364(19)           355.4865          337.8255                                                                   
  3554    64.3197    368(19)           357.2535          337.9163                                                                   
  3555    64.3364    393(20)           359.1805          338.0071                                                                   
  3556    64.3531    381(20)           361.2362          338.0979                                                                   
  3557    64.3698    377(19)           363.3854          338.1887                                                                   
  3558    64.3865    406(20)           365.5867          338.2795                                                                   
  3559    64.4032    371(19)           367.7940          338.3703                                                                   
  3560    64.4199    386(20)           369.9630          338.4611                                                                   
  3561    64.4366    364(19)           372.0448          338.5519                                                                   
  3562    64.4533    404(20)           373.9978          338.6427                                                                   
  3563    64.4701    371(19)           375.7827          338.7335                                                                   
  3564    64.4868    393(20)           377.3644          338.8243                                                                   
  3565    64.5035    421(21)           378.7175          338.9151                                                                   
  3566    64.5202    406(20)           379.8250          339.0059                                                                   
  3567    64.5369    374(19)           380.6760          339.0967                                                                   
  3568    64.5536    366(19)           381.2705          339.1875                                                                   
  3569    64.5703    401(20)           381.6147          339.2783                                                                   
  3570    64.5870    383(20)           381.7203          339.3691                                                                   
  3571    64.6038    374(19)           381.6029          339.4599                                                                   
  3572    64.6205    397(20)           381.2801          339.5507                                                                   
  3573    64.6372    388(20)           380.7711          339.6414                                                                   
  3574    64.6539    407(20)           380.0929          339.7323                                                                   
  3575    64.6706    374(19)           379.2643          339.8231                                                                   
  3576    64.6873    364(19)           378.3058          339.9139                                                                   
  3577    64.7040    388(20)           377.2368          340.0047                                                                   
  3578    64.7207    373(19)           376.0793          340.0955                                                                   
  3579    64.7374    330(18)           374.8574          340.1863                                                                   
  3580    64.7542    393(20)           373.5984          340.2771                                                                   
  3581    64.7709    369(19)           372.3293          340.3679                                                                   
  3582    64.7876    376(19)           371.0781          340.4587                                                                   
  3583    64.8043    379(19)           369.8735          340.5495                                                                   
  3584    64.8210    380(19)           368.7410          340.6403                                                                   
  3585    64.8377    396(20)           367.7055          340.7311                                                                   
  3586    64.8544    350(19)           366.7874          340.8218                                                                   
  3587    64.8711    355(19)           366.0054          340.9127                                                                   
  3588    64.8878    355(19)           365.3741          341.0034                                                                   
  3589    64.9046    367(19)           364.9043          341.0943                                                                   
  3590    64.9213    377(19)           364.6022          341.1851                                                                   
  3591    64.9380    375(19)           364.4702          341.2758                                                                   
  3592    64.9547    376(19)           364.5045          341.3667                                                                   
  3593    64.9714    397(20)           364.6994          341.4575                                                                   
  3594    64.9881    356(19)           365.0430          341.5482                                                                   
  3595    65.0048    373(19)           365.5209          341.6391                                                                   
  3596    65.0215    393(20)           366.1158          341.7299                                                                   
  3597    65.0382    350(19)           366.8104          341.8207                                                                   
  3598    65.0550    393(20)           367.5861          341.9115                                                                   
  3599    65.0717    408(20)           368.4290          342.0022                                                                   
  3600    65.0884    386(20)           369.3224          342.0930                                                                   
  3601    65.1051    392(20)           370.2559          342.1838                                                                   
  3602    65.1218    385(20)           371.2231          342.2746                                                                   
  3603    65.1385    381(20)           372.2191          342.3654                                                                   
  3604    65.1552    403(20)           373.2412          342.4562                                                                   
  3605    65.1719    389(20)           374.2876          342.5471                                                                   
  3606    65.1886    344(19)           375.3549          342.6378                                                                   
  3607    65.2054    428(21)           376.4390          342.7286                                                                   
  3608    65.2221    355(19)           377.5323          342.8195                                                                   
  3609    65.2388    386(20)           378.6224          342.9102                                                                   
  3610    65.2555    381(20)           379.6951          343.0010                                                                   
  3611    65.2722    372(19)           380.7303          343.0919                                                                   
  3612    65.2889    390(20)           381.7063          343.1826                                                                   
  3613    65.3056    374(19)           382.6024          343.2734                                                                   
  3614    65.3223    414(20)           383.3966          343.3642                                                                   
  3615    65.3390    364(19)           384.0692          343.4550                                                                   
  3616    65.3558    378(19)           384.6067          343.5458                                                                   
  3617    65.3725    383(20)           384.9962          343.6366                                                                   
  3618    65.3892    420(20)           385.2349          343.7274                                                                   
  3619    65.4059    372(19)           385.3234          343.8182                                                                   
  3620    65.4226    383(20)           385.2678          343.9090                                                                   
  3621    65.4393    381(20)           385.0776          343.9998                                                                   
  3622    65.4560    414(20)           384.7664          344.0906                                                                   
  3623    65.4727    377(19)           384.3484          344.1814                                                                   
  3624    65.4894    378(19)           383.8383          344.2722                                                                   
  3625    65.5062    348(19)           383.2506          344.3630                                                                   
  3626    65.5229    366(19)           382.5964          344.4538                                                                   
  3627    65.5396    377(19)           381.8874          344.5446                                                                   
  3628    65.5563    381(20)           381.1297          344.6354                                                                   
  3629    65.5730    359(19)           380.3313          344.7262                                                                   
  3630    65.5897    391(20)           379.4969          344.8170                                                                   
  3631    65.6064    364(19)           378.6325          344.9078                                                                   
  3632    65.6231    385(20)           377.7415          344.9986                                                                   
  3633    65.6398    376(19)           376.8311          345.0894                                                                   
  3634    65.6566    388(20)           375.9073          345.1802                                                                   
  3635    65.6733    359(19)           374.9785          345.2710                                                                   
  3636    65.6900    364(19)           374.0558          345.3618                                                                   
  3637    65.7067    385(20)           373.1471          345.4526                                                                   
  3638    65.7234    362(19)           372.2625          345.5434                                                                   
  3639    65.7401    378(19)           371.4090          345.6342                                                                   
  3640    65.7568    376(19)           370.5922          345.7250                                                                   
  3641    65.7735    343(19)           369.8186          345.8158                                                                   
  3642    65.7903    350(19)           369.0910          345.9066                                                                   
  3643    65.8070    376(19)           368.4114          345.9974                                                                   
  3644    65.8237    386(20)           367.7812          346.0882                                                                   
  3645    65.8404    352(19)           367.2014          346.1790                                                                   
  3646    65.8571    393(20)           366.6744          346.2698                                                                   
  3647    65.8738    355(19)           366.2019          346.3606                                                                   
  3648    65.8905    343(19)           365.7863          346.4514                                                                   
  3649    65.9072    364(19)           365.4304          346.5422                                                                   
  3650    65.9239    344(19)           365.1383          346.6330                                                                   
  3651    65.9407    378(19)           364.9136          346.7238                                                                   
  3652    65.9574    404(20)           364.6759          346.7286                                                                   
  3653    65.9741    385(20)           364.4770          346.6944                                                                   
  3654    65.9908    397(20)           364.3616          346.6602                                                                   
  3655    66.0075    359(19)           364.3346          346.6259                                                                   
  3656    66.0242    364(19)           364.4027          346.5917                                                                   
  3657    66.0409    348(19)           364.5726          346.5575                                                                   
  3658    66.0576    356(19)           364.8463          346.5233                                                                   
  3659    66.0743    368(19)           365.2276          346.4891                                                                   
  3660    66.0910    362(19)           365.7183          346.4549                                                                   
  3661    66.1078    363(19)           366.3189          346.4207                                                                   
  3662    66.1245    368(19)           367.0269          346.3865                                                                   
  3663    66.1412    367(19)           367.8405          346.3523                                                                   
  3664    66.1579    359(19)           368.7505          346.3181                                                                   
  3665    66.1746    372(19)           369.7498          346.2839                                                                   
  3666    66.1913    363(19)           370.8282          346.2496                                                                   
  3667    66.2080    344(19)           371.9701          346.2155                                                                   
  3668    66.2247    384(20)           373.1649          346.1812                                                                   
  3669    66.2415    351(19)           374.3956          346.1470                                                                   
  3670    66.2582    356(19)           375.6453          346.1128                                                                   
  3671    66.2749    396(20)           376.8990          346.0786                                                                   
  3672    66.2916    362(19)           378.1394          346.0444                                                                   
  3673    66.3083    345(19)           379.3503          346.0102                                                                   
  3674    66.3250    419(20)           380.5195          345.9760                                                                   
  3675    66.3417    372(19)           381.6304          345.9418                                                                   
  3676    66.3584    383(20)           382.6731          345.9076                                                                   
  3677    66.3751    386(20)           383.6367          345.8734                                                                   
  3678    66.3919    383(20)           384.5148          345.8391                                                                   
  3679    66.4086    379(19)           385.3037          345.8049                                                                   
  3680    66.4253    395(20)           385.9998          345.7707                                                                   
  3681    66.4420    346(19)           386.6016          345.7365                                                                   
  3682    66.4587    356(19)           387.1097          345.7023                                                                   
  3683    66.4754    383(20)           387.5219          345.6681                                                                   
  3684    66.4921    367(19)           387.8378          345.6339                                                                   
  3685    66.5088    396(20)           388.0561          345.5997                                                                   
  3686    66.5255    386(20)           388.1757          345.5655                                                                   
  3687    66.5423    394(20)           388.1940          345.5312                                                                   
  3688    66.5590    390(20)           388.1088          345.4971                                                                   
  3689    66.5757    396(20)           387.9184          345.4629                                                                   
  3690    66.5924    374(19)           387.6214          345.4286                                                                   
  3691    66.6091    426(21)           387.2173          345.3944                                                                   
  3692    66.6258    356(19)           386.7071          345.3602                                                                   
  3693    66.6425    380(19)           386.0931          345.3260                                                                   
  3694    66.6592    385(20)           385.3776          345.2918                                                                   
  3695    66.6759    369(19)           384.5656          345.2576                                                                   
  3696    66.6927    403(20)           383.6653          345.2234                                                                   
  3697    66.7094    360(19)           382.6850          345.1892                                                                   
  3698    66.7261    367(19)           381.6346          345.1550                                                                   
  3699    66.7428    335(18)           380.5252          345.1208                                                                   
  3700    66.7595    369(19)           379.3672          345.0865                                                                   
  3701    66.7762    363(19)           378.1740          345.0523                                                                   
  3702    66.7929    381(20)           376.9542          345.0182                                                                   
  3703    66.8096    417(20)           375.7199          344.9839                                                                   
  3704    66.8263    411(20)           374.4837          344.9497                                                                   
  3705    66.8431    343(19)           373.2545          344.9155                                                                   
  3706    66.8598    369(19)           372.0437          344.8813                                                                   
  3707    66.8765    418(20)           370.8607          344.8471                                                                   
  3708    66.8932    386(20)           369.7138          344.8129                                                                   
  3709    66.9099    321(18)           368.6121          344.7787                                                                   
  3710    66.9266    383(20)           367.5619          344.7445                                                                   
  3711    66.9433    351(19)           366.5700          344.7103                                                                   
  3712    66.9600    363(19)           365.6429          344.6761                                                                   
  3713    66.9768    366(19)           364.7843          344.6418                                                                   
  3714    66.9935    362(19)           363.9992          344.6076                                                                   
  3715    67.0102    377(19)           363.2920          344.5734                                                                   
  3716    67.0269    391(20)           362.6646          344.5392                                                                   
  3717    67.0436    369(19)           362.1221          344.5050                                                                   
  3718    67.0603    378(19)           361.6652          344.4708                                                                   
  3719    67.0770    356(19)           361.2923          344.4366                                                                   
  3720    67.0937    366(19)           361.0020          344.4024                                                                   
  3721    67.1104    329(18)           360.7901          344.3682                                                                   
  3722    67.1272    380(19)           360.6515          344.3340                                                                   
  3723    67.1439    374(19)           360.5798          344.2998                                                                   
  3724    67.1606    327(18)           360.5675          344.2656                                                                   
  3725    67.1773    350(19)           360.6057          344.2314                                                                   
  3726    67.1940    357(19)           360.6861          344.1971                                                                   
  3727    67.2107    333(18)           360.7999          344.1629                                                                   
  3728    67.2274    372(19)           360.9378          344.1287                                                                   
  3729    67.2441    390(20)           361.0941          344.0945                                                                   
  3730    67.2608    369(19)           361.2607          344.0603                                                                   
  3731    67.2775    366(19)           361.4312          344.0261                                                                   
  3732    67.2943    353(19)           361.6011          343.9919                                                                   
  3733    67.3110    400(20)           361.7674          343.9577                                                                   
  3734    67.3277    367(19)           361.9284          343.9235                                                                   
  3735    67.3444    390(20)           362.0845          343.8893                                                                   
  3736    67.3611    359(19)           362.2382          343.8551                                                                   
  3737    67.3778    366(19)           362.3918          343.8208                                                                   
  3738    67.3945    348(19)           362.5511          343.7867                                                                   
  3739    67.4112    351(19)           362.7229          343.7524                                                                   
  3740    67.4280    344(19)           362.9146          343.7182                                                                   
  3741    67.4447    328(18)           363.1331          343.6840                                                                   
  3742    67.4614    354(19)           363.3853          343.6498                                                                   
  3743    67.4781    367(19)           363.6758          343.6156                                                                   
  3744    67.4948    396(20)           364.0081          343.5814                                                                   
  3745    67.5115    403(20)           364.3831          343.5472                                                                   
  3746    67.5282    375(19)           364.7987          343.5130                                                                   
  3747    67.5449    353(19)           365.2484          343.4788                                                                   
  3748    67.5616    374(19)           365.7246          343.4445                                                                   
  3749    67.5784    370(19)           366.2169          343.4103                                                                   
  3750    67.5951    387(20)           366.7144          343.3761                                                                   
  3751    67.6118    359(19)           367.2042          343.3419                                                                   
  3752    67.6285    369(19)           367.6743          343.3077                                                                   
  3753    67.6452    380(19)           368.1148          343.2735                                                                   
  3754    67.6619    337(18)           368.5132          343.2393                                                                   
  3755    67.6786    401(20)           368.8631          343.2051                                                                   
  3756    67.6953    339(18)           369.1603          343.1709                                                                   
  3757    67.7120    391(20)           369.4037          343.1367                                                                   
  3758    67.7288    397(20)           369.5947          343.1025                                                                   
  3759    67.7455    404(20)           369.7389          343.0683                                                                   
  3760    67.7622    347(19)           369.8448          343.0341                                                                   
  3761    67.7789    340(18)           369.9213          342.9998                                                                   
  3762    67.7956    388(20)           369.9779          342.9656                                                                   
  3763    67.8123    363(19)           370.0224          342.9314                                                                   
  3764    67.8290    407(20)           370.0629          342.8972                                                                   
  3765    67.8457    383(20)           370.0966          342.8630                                                                   
  3766    67.8624    404(20)           370.1235          342.8288                                                                   
  3767    67.8792    392(20)           370.1382          342.7946                                                                   
  3768    67.8959    377(19)           370.1359          342.7604                                                                   
  3769    67.9126    359(19)           370.1057          342.7262                                                                   
  3770    67.9293    361(19)           370.0372          342.6920                                                                   
  3771    67.9460    344(19)           369.9206          342.6577                                                                   
  3772    67.9627    397(20)           369.7477          342.6236                                                                   
  3773    67.9794    370(19)           369.5109          342.5894                                                                   
  3774    67.9961    384(20)           369.2090          342.5551                                                                   
  3775    68.0128    372(19)           368.8427          342.5209                                                                   
  3776    68.0296    390(20)           368.4156          342.4867                                                                   
  3777    68.0463    369(19)           367.9335          342.4525                                                                   
  3778    68.0630    385(20)           367.4089          342.4183                                                                   
  3779    68.0797    340(18)           366.8556          342.3841                                                                   
  3780    68.0964    363(19)           366.2888          342.3499                                                                   
  3781    68.1131    357(19)           365.7228          342.3157                                                                   
  3782    68.1298    345(19)           365.1718          342.2815                                                                   
  3783    68.1465    364(19)           364.6500          342.2473                                                                   
  3784    68.1632    350(19)           364.1673          342.2131                                                                   
  3785    68.1800    363(19)           363.7325          342.1788                                                                   
  3786    68.1967    387(20)           363.3559          342.1447                                                                   
  3787    68.2134    391(20)           363.0399          342.1104                                                                   
  3788    68.2301    389(20)           362.7881          342.0762                                                                   
  3789    68.2468    371(19)           362.6014          342.0420                                                                   
  3790    68.2635    335(18)           362.4784          342.0078                                                                   
  3791    68.2802    351(19)           362.4156          341.9736                                                                   
  3792    68.2969    334(18)           362.4084          341.9394                                                                   
  3793    68.3137    368(19)           362.4488          341.9052                                                                   
  3794    68.3304    379(19)           362.5289          341.8710                                                                   
  3795    68.3471    357(19)           362.6401          341.8368                                                                   
  3796    68.3638    360(19)           362.7724          341.8033                                                                   
  3797    68.3805    353(19)           362.9711          341.8248                                                                   
  3798    68.3972    355(19)           363.1718          341.8463                                                                   
  3799    68.4139    335(18)           363.3661          341.8679                                                                   
  3800    68.4306    372(19)           363.5476          341.8894                                                                   
  3801    68.4473    339(18)           363.7115          341.9109                                                                   
  3802    68.4641    348(19)           363.8553          341.9324                                                                   
  3803    68.4808    353(19)           363.9794          341.9540                                                                   
  3804    68.4975    347(19)           364.0844          341.9755                                                                   
  3805    68.5142    377(19)           364.1750          341.9970                                                                   
  3806    68.5309    338(18)           364.2558          342.0186                                                                   
  3807    68.5476    339(18)           364.3324          342.0401                                                                   
  3808    68.5643    355(19)           364.4115          342.0616                                                                   
  3809    68.5810    403(20)           364.5002          342.0831                                                                   
  3810    68.5977    389(20)           364.6052          342.1046                                                                   
  3811    68.6145    368(19)           364.7318          342.1262                                                                   
  3812    68.6312    353(19)           364.8848          342.1477                                                                   
  3813    68.6479    364(19)           365.0680          342.1693                                                                   
  3814    68.6646    373(19)           365.2824          342.1908                                                                   
  3815    68.6813    333(18)           365.5292          342.2123                                                                   
  3816    68.6980    355(19)           365.8029          342.2338                                                                   
  3817    68.7147    375(19)           366.0995          342.2553                                                                   
  3818    68.7314    370(19)           366.4135          342.2769                                                                   
  3819    68.7481    343(19)           366.7378          342.2984                                                                   
  3820    68.7649    391(20)           367.0633          342.3199                                                                   
  3821    68.7816    360(19)           367.3820          342.3415                                                                   
  3822    68.7983    378(19)           367.6861          342.3630                                                                   
  3823    68.8150    360(19)           367.9669          342.3845                                                                   
  3824    68.8317    364(19)           368.2179          342.4060                                                                   
  3825    68.8484    367(19)           368.4345          342.4276                                                                   
  3826    68.8651    395(20)           368.6129          342.4491                                                                   
  3827    68.8818    387(20)           368.7518          342.4706                                                                   
  3828    68.8985    428(21)           368.8487          342.4921                                                                   
  3829    68.9153    360(19)           368.9062          342.5137                                                                   
  3830    68.9320    351(19)           368.9257          342.5352                                                                   
  3831    68.9487    377(19)           368.9098          342.5567                                                                   
  3832    68.9654    383(20)           368.8613          342.5782                                                                   
  3833    68.9821    387(20)           368.7864          342.5998                                                                   
  3834    68.9988    356(19)           368.6887          342.6213                                                                   
  3835    69.0155    372(19)           368.5725          342.6428                                                                   
  3836    69.0322    353(19)           368.4440          342.6643                                                                   
  3837    69.0489    341(18)           368.3111          342.6859                                                                   
  3838    69.0657    379(19)           368.1804          342.7074                                                                   
  3839    69.0824    348(19)           368.0635          342.7289                                                                   
  3840    69.0991    385(20)           367.9696          342.7504                                                                   
  3841    69.1158    346(19)           367.9095          342.7720                                                                   
  3842    69.1325    340(18)           367.8931          342.7935                                                                   
  3843    69.1492    376(19)           367.9289          342.8150                                                                   
  3844    69.1659    408(20)           368.0275          342.8365                                                                   
  3845    69.1826    355(19)           368.1936          342.8581                                                                   
  3846    69.1993    388(20)           368.4329          342.8796                                                                   
  3847    69.2161    395(20)           368.7472          342.9011                                                                   
  3848    69.2328    410(20)           369.1375          342.9226                                                                   
  3849    69.2495    419(20)           369.6003          342.9442                                                                   
  3850    69.2662    368(19)           370.1320          342.9657                                                                   
  3851    69.2829    337(18)           370.7259          342.9872                                                                   
  3852    69.2996    358(19)           371.3744          343.0088                                                                   
  3853    69.3163    360(19)           372.0661          343.0303                                                                   
  3854    69.3330    425(21)           372.7898          343.0518                                                                   
  3855    69.3497    385(20)           373.5330          343.0733                                                                   
  3856    69.3665    422(21)           374.2854          343.0948                                                                   
  3857    69.3832    359(19)           375.0341          343.1164                                                                   
  3858    69.3999    358(19)           375.7725          343.1379                                                                   
  3859    69.4166    364(19)           376.4933          343.1594                                                                   
  3860    69.4333    390(20)           377.1923          343.1810                                                                   
  3861    69.4500    378(19)           377.8672          343.2025                                                                   
  3862    69.4667    336(18)           378.5181          343.2240                                                                   
  3863    69.4834    410(20)           379.1461          343.2455                                                                   
  3864    69.5002    334(18)           379.7540          343.2671                                                                   
  3865    69.5169    402(20)           380.3437          343.2886                                                                   
  3866    69.5336    398(20)           380.9189          343.3101                                                                   
  3867    69.5503    426(21)           381.4819          343.3316                                                                   
  3868    69.5670    384(20)           382.0336          343.3531                                                                   
  3869    69.5837    386(20)           382.5715          343.3747                                                                   
  3870    69.6004    429(21)           383.0920          343.3962                                                                   
  3871    69.6171    397(20)           383.5884          343.4177                                                                   
  3872    69.6338    401(20)           384.0490          343.4393                                                                   
  3873    69.6506    370(19)           384.4602          343.4608                                                                   
  3874    69.6673    379(19)           384.8068          343.4823                                                                   
  3875    69.6840    381(20)           385.0718          343.5038                                                                   
  3876    69.7007    383(20)           385.2385          343.5254                                                                   
  3877    69.7174    400(20)           385.2918          343.5469                                                                   
  3878    69.7341    419(20)           385.2197          343.5684                                                                   
  3879    69.7508    364(19)           385.0148          343.5899                                                                   
  3880    69.7675    374(19)           384.6724          343.6115                                                                   
  3881    69.7842    390(20)           384.1962          343.6330                                                                   
  3882    69.8009    378(19)           383.5925          343.6545                                                                   
  3883    69.8177    378(19)           382.8742          343.6761                                                                   
  3884    69.8344    406(20)           382.0574          343.6976                                                                   
  3885    69.8511    366(19)           381.1600          343.7191                                                                   
  3886    69.8678    403(20)           380.2037          343.7406                                                                   
  3887    69.8845    390(20)           379.2093          343.7621                                                                   
  3888    69.9012    370(19)           378.1989          343.7837                                                                   
  3889    69.9179    362(19)           377.1945          343.8052                                                                   
  3890    69.9346    336(18)           376.2163          343.8267                                                                   
  3891    69.9514    368(19)           375.2841          343.8483                                                                   
  3892    69.9681    407(20)           374.4163          343.8698                                                                   
  3893    69.9848    374(19)           373.6311          343.8913                                                                   
  3894    70.0015    381(20)           372.9457          343.9128                                                                   
  3895    70.0182    353(19)           372.3769          343.9344                                                                   
  3896    70.0349    373(19)           371.9381          343.9559                                                                   
  3897    70.0516    388(20)           371.6441          343.9774                                                                   
  3898    70.0683    364(19)           371.5056          343.9990                                                                   
  3899    70.0850    330(18)           371.5312          344.0205                                                                   
  3900    70.1018    359(19)           371.7262          344.0420                                                                   
  3901    70.1185    385(20)           372.0931          344.0635                                                                   
  3902    70.1352    356(19)           372.6299          344.0851                                                                   
  3903    70.1519    348(19)           373.3318          344.1066                                                                   
  3904    70.1686    398(20)           374.1897          344.1281                                                                   
  3905    70.1853    403(20)           375.1905          344.1496                                                                   
  3906    70.2020    395(20)           376.3188          344.1711                                                                   
  3907    70.2187    359(19)           377.5559          344.1927                                                                   
  3908    70.2354    391(20)           378.8808          344.2142                                                                   
  3909    70.2522    403(20)           380.2721          344.2357                                                                   
  3910    70.2689    357(19)           381.7066          344.2573                                                                   
  3911    70.2856    385(20)           383.1623          344.2788                                                                   
  3912    70.3023    402(20)           384.6190          344.3003                                                                   
  3913    70.3190    401(20)           386.0568          344.3218                                                                   
  3914    70.3357    370(19)           387.4614          344.3434                                                                   
  3915    70.3524    412(20)           388.8189          344.3649                                                                   
  3916    70.3691    372(19)           390.1196          344.3864                                                                   
  3917    70.3858    363(19)           391.3624          344.4079                                                                   
  3918    70.4026    366(19)           392.5422          344.4295                                                                   
  3919    70.4193    364(19)           393.6606          344.4510                                                                   
  3920    70.4360    400(20)           394.7203          344.4725                                                                   
  3921    70.4527    419(20)           395.7242          344.4940                                                                   
  3922    70.4694    355(19)           396.6776          344.5156                                                                   
  3923    70.4861    411(20)           397.5825          344.5371                                                                   
  3924    70.5028    377(19)           398.4408          344.5586                                                                   
  3925    70.5195    408(20)           399.2516          344.5801                                                                   
  3926    70.5362    380(19)           400.0099          344.6017                                                                   
  3927    70.5530    389(20)           400.7080          344.6232                                                                   
  3928    70.5697    396(20)           401.3336          344.6447                                                                   
  3929    70.5864    429(21)           401.8761          344.6663                                                                   
  3930    70.6031    421(21)           402.3200          344.6878                                                                   
  3931    70.6198    407(20)           402.6503          344.7093                                                                   
  3932    70.6365    390(20)           402.8548          344.7308                                                                   
  3933    70.6532    441(21)           402.9227          344.7523                                                                   
  3934    70.6699    394(20)           402.8481          344.7739                                                                   
  3935    70.6867    374(19)           402.6268          344.7954                                                                   
  3936    70.7034    405(20)           402.2617          344.8169                                                                   
  3937    70.7201    406(20)           401.7557          344.8384                                                                   
  3938    70.7368    427(21)           401.1144          344.8600                                                                   
  3939    70.7535    424(21)           400.3461          344.8815                                                                   
  3940    70.7702    426(21)           399.4595          344.9030                                                                   
  3941    70.7869    414(20)           398.4644          344.9246                                                                   
  3942    70.8036    370(19)           397.3719          344.9461                                                                   
  3943    70.8203    380(19)           396.1923          344.9676                                                                   
  3944    70.8371    398(20)           394.9375          344.9891                                                                   
  3945    70.8538    387(20)           393.6187          345.0107                                                                   
  3946    70.8705    377(19)           392.2473          345.0322                                                                   
  3947    70.8872    423(21)           390.8349          345.0537                                                                   
  3948    70.9039    409(20)           389.3930          345.0752                                                                   
  3949    70.9206    402(20)           387.9298          345.0968                                                                   
  3950    70.9373    359(19)           386.4551          345.1183                                                                   
  3951    70.9540    356(19)           384.9756          345.1398                                                                   
  3952    70.9707    380(19)           383.4989          345.1613                                                                   
  3953    70.9874    376(19)           382.0307          345.1829                                                                   
  3954    71.0042    408(20)           380.5770          345.2044                                                                   
  3955    71.0209    351(19)           379.1450          345.2259                                                                   
  3956    71.0376    417(20)           377.7395          345.2475                                                                   
  3957    71.0543    379(19)           376.3682          345.2690                                                                   
  3958    71.0710    352(19)           375.0381          345.2905                                                                   
  3959    71.0877    414(20)           373.7547          345.3120                                                                   
  3960    71.1044    386(20)           372.5271          345.3336                                                                   
  3961    71.1211    342(18)           371.3632          345.3551                                                                   
  3962    71.1379    369(19)           370.2717          345.3766                                                                   
  3963    71.1546    388(20)           369.2636          345.3981                                                                   
  3964    71.1713    371(19)           368.3479          345.4197                                                                   
  3965    71.1880    380(19)           367.5361          345.4412                                                                   
  3966    71.2047    386(20)           366.8395          345.4627                                                                   
  3967    71.2214    362(19)           366.2681          345.4843                                                                   
  3968    71.2381    416(20)           365.8328          345.5058                                                                   
  3969    71.2548    360(19)           365.5422          345.5273                                                                   
  3970    71.2715    379(19)           365.4031          345.5488                                                                   
  3971    71.2883    403(20)           365.4311          345.5810                                                                   
  3972    71.3050    362(19)           365.6172          345.6134                                                                   
  3973    71.3217    347(19)           365.9600          345.6458                                                                   
  3974    71.3384    340(18)           366.4544          345.6781                                                                   
  3975    71.3551    352(19)           367.0924          345.7105                                                                   
  3976    71.3718    384(20)           367.8607          345.7428                                                                   
  3977    71.3885    351(19)           368.7435          345.7752                                                                   
  3978    71.4052    362(19)           369.7216          345.8076                                                                   
  3979    71.4219    388(20)           370.7713          345.8399                                                                   
  3980    71.4387    396(20)           371.8688          345.8723                                                                   
  3981    71.4554    380(19)           372.9862          345.9047                                                                   
  3982    71.4721    360(19)           374.0970          345.9370                                                                   
  3983    71.4888    381(20)           375.1751          345.9694                                                                   
  3984    71.5055    370(19)           376.1931          346.0017                                                                   
  3985    71.5222    368(19)           377.1291          346.0341                                                                   
  3986    71.5389    383(20)           377.9632          346.0665                                                                   
  3987    71.5556    408(20)           378.6798          346.0988                                                                   
  3988    71.5723    400(20)           379.2692          346.1312                                                                   
  3989    71.5891    393(20)           379.7239          346.1635                                                                   
  3990    71.6058    364(19)           380.0419          346.1959                                                                   
  3991    71.6225    374(19)           380.2242          346.2283                                                                   
  3992    71.6392    403(20)           380.2752          346.2606                                                                   
  3993    71.6559    389(20)           380.2016          346.2930                                                                   
  3994    71.6726    364(19)           380.0117          346.3253                                                                   
  3995    71.6893    394(20)           379.7161          346.3577                                                                   
  3996    71.7060    373(19)           379.3263          346.3901                                                                   
  3997    71.7227    363(19)           378.8546          346.4224                                                                   
  3998    71.7395    383(20)           378.3142          346.4548                                                                   
  3999    71.7562    410(20)           377.7199          346.4872                                                                   
  4000    71.7729    384(20)           377.0857          346.5195                                                                   
  4001    71.7896    346(19)           376.4272          346.5519                                                                   
  4002    71.8063    392(20)           375.7590          346.5843                                                                   
  4003    71.8230    359(19)           375.0959          346.6166                                                                   
  4004    71.8397    377(19)           374.4507          346.6490                                                                   
  4005    71.8564    329(18)           373.8361          346.6813                                                                   
  4006    71.8731    344(19)           373.2620          346.7137                                                                   
  4007    71.8899    378(19)           372.7367          346.7461                                                                   
  4008    71.9066    360(19)           372.2671          346.7784                                                                   
  4009    71.9233    366(19)           371.8568          346.8108                                                                   
  4010    71.9400    402(20)           371.5089          346.8431                                                                   
  4011    71.9567    371(19)           371.2235          346.8755                                                                   
  4012    71.9734    390(20)           370.9991          346.9079                                                                   
  4013    71.9901    381(20)           370.8317          346.9402                                                                   
  4014    72.0068    373(19)           370.7173          346.9726                                                                   
  4015    72.0236    392(20)           370.6508          347.0049                                                                   
  4016    72.0403    390(20)           370.6244          347.0373                                                                   
  4017    72.0570    403(20)           370.6324          347.0697                                                                   
  4018    72.0737    364(19)           370.6679          347.1020                                                                   
  4019    72.0904    388(20)           370.7253          347.1344                                                                   
  4020    72.1071    336(18)           370.7989          347.1667                                                                   
  4021    72.1238    397(20)           370.8853          347.1991                                                                   
  4022    72.1405    353(19)           370.9804          347.2315                                                                   
  4023    72.1572    355(19)           371.0842          347.2639                                                                   
  4024    72.1740    321(18)           371.1958          347.2962                                                                   
  4025    72.1907    404(20)           371.3170          347.3286                                                                   
  4026    72.2074    360(19)           371.4489          347.3609                                                                   
  4027    72.2241    354(19)           371.5946          347.3933                                                                   
  4028    72.2408    347(19)           371.7596          347.4257                                                                   
  4029    72.2575    348(19)           371.9448          347.4580                                                                   
  4030    72.2742    403(20)           372.1571          347.4904                                                                   
  4031    72.2909    379(19)           372.3996          347.5227                                                                   
  4032    72.3076    385(20)           372.6748          347.5551                                                                   
  4033    72.3244    383(20)           372.9858          347.5875                                                                   
  4034    72.3411    380(19)           373.3332          347.6198                                                                   
  4035    72.3578    369(19)           373.7179          347.6522                                                                   
  4036    72.3745    362(19)           374.1393          347.6845                                                                   
  4037    72.3912    383(20)           374.5945          347.7169                                                                   
  4038    72.4079    370(19)           375.0816          347.7493                                                                   
  4039    72.4246    354(19)           375.5944          347.7816                                                                   
  4040    72.4413    395(20)           376.1287          347.8140                                                                   
  4041    72.4580    370(19)           376.6776          347.8463                                                                   
  4042    72.4748    384(20)           377.2336          347.8787                                                                   
  4043    72.4915    411(20)           377.7889          347.9111                                                                   
  4044    72.5082    381(20)           378.3347          347.9434                                                                   
  4045    72.5249    376(19)           378.8598          347.9758                                                                   
  4046    72.5416    374(19)           379.3569          348.0081                                                                   
  4047    72.5583    437(21)           379.8142          348.0405                                                                   
  4048    72.5750    392(20)           380.2213          348.0729                                                                   
  4049    72.5917    383(20)           380.5682          348.1053                                                                   
  4050    72.6084    380(19)           380.8445          348.1376                                                                   
  4051    72.6252    390(20)           381.0407          348.1700                                                                   
  4052    72.6419    334(18)           381.1476          348.2023                                                                   
  4053    72.6586    362(19)           381.1580          348.2347                                                                   
  4054    72.6753    388(20)           381.0667          348.2671                                                                   
  4055    72.6920    390(20)           380.8705          348.2994                                                                   
  4056    72.7087    384(20)           380.5679          348.3318                                                                   
  4057    72.7254    386(20)           380.1614          348.3641                                                                   
  4058    72.7421    359(19)           379.6544          348.3965                                                                   
  4059    72.7589    367(19)           379.0541          348.4289                                                                   
  4060    72.7756    359(19)           378.3682          348.4612                                                                   
  4061    72.7923    392(20)           377.6063          348.4936                                                                   
  4062    72.8090    393(20)           376.7777          348.5259                                                                   
  4063    72.8257    363(19)           375.8937          348.5583                                                                   
  4064    72.8424    402(20)           374.9639          348.5907                                                                   
  4065    72.8591    370(19)           373.9980          348.6230                                                                   
  4066    72.8758    369(19)           373.0074          348.6554                                                                   
  4067    72.8925    371(19)           372.0002          348.6877                                                                   
  4068    72.9092    385(20)           370.9871          348.7201                                                                   
  4069    72.9260    391(20)           369.9763          348.7525                                                                   
  4070    72.9427    341(18)           368.9772          348.7849                                                                   
  4071    72.9594    390(20)           367.9987          348.8172                                                                   
  4072    72.9761    358(19)           367.0478          348.8496                                                                   
  4073    72.9928    360(19)           366.1324          348.8819                                                                   
  4074    73.0095    324(18)           365.2589          348.9143                                                                   
  4075    73.0262    385(20)           364.4323          348.9467                                                                   
  4076    73.0429    358(19)           363.6587          348.9790                                                                   
  4077    73.0596    360(19)           362.9409          349.0114                                                                   
  4078    73.0764    342(18)           362.2810          349.0437                                                                   
  4079    73.0931    346(19)           361.6814          349.0761                                                                   
  4080    73.1098    379(19)           361.1406          349.1085                                                                   
  4081    73.1265    361(19)           360.6602          349.1408                                                                   
  4082    73.1432    359(19)           360.2383          349.1732                                                                   
  4083    73.1599    361(19)           359.8717          349.2055                                                                   
  4084    73.1766    357(19)           359.5585          349.2379                                                                   
  4085    73.1933    324(18)           359.2938          349.2703                                                                   
  4086    73.2101    346(19)           359.0754          349.3026                                                                   
  4087    73.2268    359(19)           358.8991          349.3350                                                                   
  4088    73.2435    374(19)           358.7612          349.3673                                                                   
  4089    73.2602    356(19)           358.6612          349.3997                                                                   
  4090    73.2769    348(19)           358.5955          349.4321                                                                   
  4091    73.2936    373(19)           358.5624          349.4644                                                                   
  4092    73.3103    347(19)           358.5605          349.4968                                                                   
  4093    73.3270    362(19)           358.5905          349.5291                                                                   
  4094    73.3437    369(19)           358.6521          349.5615                                                                   
  4095    73.3605    358(19)           358.7458          349.5939                                                                   
  4096    73.3772    360(19)           358.8721          349.6263                                                                   
  4097    73.3939    325(18)           359.0316          349.6586                                                                   
  4098    73.4106    364(19)           359.2250          349.6909                                                                   
  4099    73.4273    348(19)           359.4523          349.7233                                                                   
  4100    73.4440    386(20)           359.7128          349.7557                                                                   
  4101    73.4607    361(19)           360.0027          349.7881                                                                   
  4102    73.4774    377(19)           360.3268          349.8204                                                                   
  4103    73.4941    345(19)           360.6798          349.8528                                                                   
  4104    73.5109    369(19)           361.0588          349.8851                                                                   
  4105    73.5276    356(19)           361.4591          349.9175                                                                   
  4106    73.5443    347(19)           361.8773          349.9499                                                                   
  4107    73.5610    336(18)           362.3067          349.9822                                                                   
  4108    73.5777    343(19)           362.7428          350.0146                                                                   
  4109    73.5944    340(18)           363.1796          350.0469                                                                   
  4110    73.6111    370(19)           363.6096          350.0793                                                                   
  4111    73.6278    342(18)           364.0265          350.1117                                                                   
  4112    73.6445    367(19)           364.4230          350.1440                                                                   
  4113    73.6613    372(19)           364.7938          350.1764                                                                   
  4114    73.6780    352(19)           365.1359          350.2087                                                                   
  4115    73.6947    359(19)           365.4439          350.2411                                                                   
  4116    73.7114    371(19)           365.7149          350.2735                                                                   
  4117    73.7281    405(20)           365.9474          350.3058                                                                   
  4118    73.7448    390(20)           366.1407          350.3382                                                                   
  4119    73.7615    348(19)           366.2962          350.3705                                                                   
  4120    73.7782    381(20)           366.4147          350.4029                                                                   
  4121    73.7949    385(20)           366.4994          350.4353                                                                   
  4122    73.8117    356(19)           366.5538          350.4676                                                                   
  4123    73.8284    384(20)           366.5814          350.5000                                                                   
  4124    73.8451    362(19)           366.5857          350.5323                                                                   
  4125    73.8618    345(19)           366.5708          350.5647                                                                   
  4126    73.8785    396(20)           366.5417          350.5971                                                                   
  4127    73.8952    355(19)           366.5018          350.6295                                                                   
  4128    73.9119    336(18)           366.4544          350.6618                                                                   
  4129    73.9286    396(20)           366.4035          350.6942                                                                   
  4130    73.9454    366(19)           366.3516          350.7265                                                                   
  4131    73.9621    405(20)           366.3011          350.7589                                                                   
  4132    73.9788    370(19)           366.2556          350.7913                                                                   
  4133    73.9955    358(19)           366.2162          350.8236                                                                   
  4134    74.0122    362(19)           366.1840          350.8560                                                                   
  4135    74.0289    386(20)           366.1608          350.8883                                                                   
  4136    74.0456    361(19)           366.1463          350.9207                                                                   
  4137    74.0623    354(19)           366.1409          350.9531                                                                   
  4138    74.0790    355(19)           366.1449          350.9854                                                                   
  4139    74.0957    375(19)           366.1580          351.0178                                                                   
  4140    74.1125    385(20)           366.1798          351.0501                                                                   
  4141    74.1292    344(19)           366.2102          351.0825                                                                   
  4142    74.1459    347(19)           366.2491          351.1149                                                                   
  4143    74.1626    364(19)           366.2965          351.1472                                                                   
  4144    74.1793    353(19)           366.3525          351.1796                                                                   
  4145    74.1960    363(19)           366.4187          351.2119                                                                   
  4146    74.2127    362(19)           366.4955          351.2443                                                                   
  4147    74.2294    406(20)           366.5840          351.2767                                                                   
  4148    74.2461    345(19)           366.6870          351.3091                                                                   
  4149    74.2629    342(18)           366.8065          351.3414                                                                   
  4150    74.2796    385(20)           366.9456          351.3738                                                                   
  4151    74.2963    369(19)           367.1071          351.4061                                                                   
  4152    74.3130    344(19)           367.2944          351.4385                                                                   
  4153    74.3297    364(19)           367.5089          351.4709                                                                   
  4154    74.3464    370(19)           367.7528          351.5032                                                                   
  4155    74.3631    357(19)           368.0266          351.5356                                                                   
  4156    74.3798    377(19)           368.3289          351.5679                                                                   
  4157    74.3966    358(19)           368.6563          351.6003                                                                   
  4158    74.4133    402(20)           369.0086          351.6327                                                                   
  4159    74.4300    373(19)           369.3800          351.6650                                                                   
  4160    74.4467    345(19)           369.7637          351.6974                                                                   
  4161    74.4634    368(19)           370.1530          351.7297                                                                   
  4162    74.4801    372(19)           370.5411          351.7621                                                                   
  4163    74.4968    347(19)           370.9205          351.7945                                                                   
  4164    74.5135    362(19)           371.2839          351.8268                                                                   
  4165    74.5302    383(20)           371.6245          351.8592                                                                   
  4166    74.5470    373(19)           371.9368          351.8915                                                                   
  4167    74.5637    363(19)           372.2158          351.9239                                                                   
  4168    74.5804    375(19)           372.4579          351.9563                                                                   
  4169    74.5971    380(19)           372.6609          351.9886                                                                   
  4170    74.6138    366(19)           372.8232          352.0210                                                                   
  4171    74.6305    408(20)           372.9469          352.0534                                                                   
  4172    74.6472    401(20)           373.0336          352.0857                                                                   
  4173    74.6639    403(20)           373.0858          352.1181                                                                   
  4174    74.6806    393(20)           373.1085          352.1505                                                                   
  4175    74.6974    395(20)           373.1068          352.1828                                                                   
  4176    74.7141    367(19)           373.0873          352.2152                                                                   
  4177    74.7308    391(20)           373.0572          352.2475                                                                   
  4178    74.7475    403(20)           373.0241          352.2799                                                                   
  4179    74.7642    429(21)           372.9973          352.3123                                                                   
  4180    74.7809    366(19)           372.9858          352.3446                                                                   
  4181    74.7976    381(20)           372.9989          352.3770                                                                   
  4182    74.8143    379(19)           373.0459          352.4093                                                                   
  4183    74.8310    385(20)           373.1365          352.4417                                                                   
  4184    74.8478    386(20)           373.2789          352.4741                                                                   
  4185    74.8645    353(19)           373.4805          352.5064                                                                   
  4186    74.8812    334(18)           373.7466          352.5380                                                                   
  4187    74.8979    393(20)           374.0511          352.5380                                                                   
  4188    74.9146    354(19)           374.4278          352.5380                                                                   
  4189    74.9313    363(19)           352.5380          352.5380                                                                   
_pd_proc_number_of_points   4189
 
loop_                          
      _refln_index_h           
      _refln_index_k           
      _refln_index_l           
      _refln_mult              
      _pd_refln_phase_id       
      _refln_observed_status   
      _refln_F_squared_meas    
      _refln_F_squared_calc    
      _refln_phase_calc        
      _refln_d_spacing         
   1   0   0  2  1  o         79.4690       39.9450  196.20  13.23866
   1   0   0  2  1  o          0.0000       39.9450  196.20  13.23866
   1   1   0  4  1  o        516.3684      546.4056  178.34   9.51128
   1   1   0  4  1  o          0.0000      546.4056  178.34   9.51128
   0   1   1  4  1  o        333.5990      386.5980  359.57   9.38551
   0   1   1  4  1  o          0.0000      386.5980  359.57   9.38551
  -1   1   1  4  1  o        211.3410      148.0702  152.06   7.80024
  -1   1   1  4  1  o          0.0000      148.0702  152.06   7.80024
   1   1   1  4  1  o        129.3749      101.0121   73.01   7.52059
   1   1   1  4  1  o          0.0000      101.0121   73.01   7.52059
   0   2   0  2  1  o       2995.2820     2930.7869   16.01   6.83693
   0   2   0  2  1  o          0.0000     2930.7869   16.01   6.83693
   2   0   0  2  1  o       6628.3521     6281.9980  189.37   6.61933
   2   0   0  2  1  o          0.0000     6281.9980  189.37   6.61933
   0   0   2  2  1  o         59.0285       59.0285    3.40   6.45283
   0   0   2  2  1  o          0.0000       59.0285    3.40   6.45283
   1   2   0  4  1  o       1595.2341     1697.1398  183.21   6.07467
   1   2   0  4  1  o          0.0000     1697.1398  183.21   6.07467
   0   2   1  4  1  o        219.6027      166.7023  232.57   6.04152
   0   2   1  4  1  o          0.0000      166.7023  232.57   6.04152
   2   1   0  4  1  o       1109.4589      987.8680   15.69   5.95795
   2   1   0  4  1  o          0.0000      987.8680   15.69   5.95795
  -1   0   2  2  1  o       3400.2844     3687.6167  198.71   5.92592
  -1   0   2  2  1  o          0.0000     3687.6167  198.71   5.92592
   0   1   2  4  1  o         41.7446       41.7446  358.50   5.83567
   0   1   2  4  1  o          0.0000       41.7446  358.50   5.83567
   1   0   2  2  1  o        304.3024      304.3024   87.34   5.68268
   1   0   2  2  1  o          0.0000      304.3024   87.34   5.68268
  -1   2   1  4  1  o      13794.8574    13879.2275  182.53   5.54866
  -1   2   1  4  1  o          0.0000    13879.2275  182.53   5.54866
  -2   1   1  4  1  o      27733.6055    27768.2461  183.44   5.51064
  -2   1   1  4  1  o          0.0000    27768.2461  183.44   5.51064
   1   2   1  4  1  o      21634.0801    21250.0508    3.02   5.44528
  -1   1   2  4  1  o      24460.2891    24001.2441  358.61   5.43727
   1   2   1  4  1  o          0.0000    21250.0508    3.02   5.44528
  -1   1   2  4  1  o          0.0000    24001.2441  358.61   5.43727
   2   1   1  4  1  o      21131.4316    19673.4199    2.49   5.31342
   2   1   1  4  1  o          0.0000    19673.4199    2.49   5.31342
   1   1   2  4  1  o      24030.4121    22079.4512  356.27   5.24756
   1   1   2  4  1  o          0.0000    22079.4512  356.27   5.24756
   2   2   0  4  1  o      12060.7959    14876.7002  184.24   4.75564
  -2   0   2  2  1  o         81.1721       94.4265   13.35   4.74853
   2   2   0  4  1  o          0.0000    14876.7002  184.24   4.75564
  -2   0   2  2  1  o          0.0000       94.4265   13.35   4.74853
   0   2   2  4  1  o        878.5360      985.6623  179.31   4.69276
   0   2   2  4  1  o          0.0000      985.6623  179.31   4.69276
  -2   2   1  4  1  o        513.4209      289.1806   30.35   4.51868
  -2   2   1  4  1  o          0.0000      289.1806   30.35   4.51868
   2   0   2  2  1  o       1003.0253      748.3553  184.99   4.50245
   2   0   2  2  1  o          0.0000      748.3553  184.99   4.50245
  -2   1   2  4  1  o        410.7317      359.8132  173.22   4.48574
  -1   2   2  4  1  o       1722.3003     1546.4724  197.42   4.47796
  -2   1   2  4  1  o          0.0000      359.8132  173.22   4.48574
  -1   2   2  4  1  o          0.0000     1546.4724  197.42   4.47796
   3   0   0  2  1  o        653.3779      443.6427  178.05   4.41289
   2   2   1  4  1  o        718.8043      547.7512  169.44   4.40801
   3   0   0  2  1  o          0.0000      443.6427  178.05   4.41289
   2   2   1  4  1  o          0.0000      547.7512  169.44   4.40801
   1   2   2  4  1  o       3949.2695     4042.4863    9.55   4.37019
   1   2   2  4  1  o          0.0000     4042.4863    9.55   4.37019
   1   3   0  4  1  o        827.4630     1395.3309    3.39   4.30968
   1   3   0  4  1  o          0.0000     1395.3309    3.39   4.30968
   0   3   1  4  1  o         51.0395       72.8354  200.83   4.29779
   0   3   1  4  1  o          0.0000       72.8354  200.83   4.29779
   2   1   2  4  1  o        961.9266      923.2277    2.42   4.27658
   2   1   2  4  1  o          0.0000      923.2277    2.42   4.27658
   3   1   0  4  1  o        562.9794      803.0397  354.68   4.19960
   3   1   0  4  1  o          0.0000      803.0397  354.68   4.19960
  -1   3   1  4  1  o        110.4952       96.8979   24.82   4.10920
   0   1   3  4  1  o       1945.7964     1775.1161    0.29   4.10360
  -1   3   1  4  1  o          0.0000       96.8979   24.82   4.10920
   0   1   3  4  1  o          0.0000     1775.1161    0.29   4.10360
   1   3   1  4  1  o        777.7262      464.5616   10.32   4.06668
   1   3   1  4  1  o          0.0000      464.5616   10.32   4.06668
  -3   1   1  4  1  o        349.7863      210.8833  223.95   4.05432
  -3   1   1  4  1  o          0.0000      210.8833  223.95   4.05432
  -1   1   3  4  1  o         69.0113        9.8464  291.72   3.97708
  -1   1   3  4  1  o          0.0000        9.8464  291.72   3.97708
   3   1   1  4  1  o       2762.3511     2796.9229  201.24   3.93532
   3   1   1  4  1  o          0.0000     2796.9229  201.24   3.93532
  -2   2   2  4  1  o       1430.7716     1649.5931    3.04   3.90012
  -2   2   2  4  1  o          0.0000     1649.5931    3.04   3.90012
   1   1   3  4  1  o        508.7227     1097.4698  348.57   3.86457
   1   1   3  4  1  o          0.0000     1097.4698  348.57   3.86457
   2   2   2  4  1  o         19.7183       13.3867  335.59   3.76030
   2   3   0  4  1  o       5238.4141     4561.7212  169.74   3.75405
   2   2   2  4  1  o          0.0000       13.3867  335.59   3.76030
   2   3   0  4  1  o          0.0000     4561.7212  169.74   3.75405
  -3   0   2  2  1  o       3254.1521     3698.3977  179.18   3.73633
  -3   0   2  2  1  o          0.0000     3698.3977  179.18   3.73633
   0   3   2  4  1  o        748.6610      899.2825    0.46   3.72288
   0   3   2  4  1  o          0.0000      899.2825    0.46   3.72288
   3   2   0  4  1  o          2.8656        2.1737  124.12   3.70765
   3   2   0  4  1  o          0.0000        2.1737  124.12   3.70765
   0   2   3  4  1  o       3600.2593     3667.5742  192.72   3.64108
  -2   3   1  4  1  o       9058.8047     9076.8799  186.63   3.63416
   0   2   3  4  1  o          0.0000     3667.5742  192.72   3.64108
  -2   3   1  4  1  o          0.0000     9076.8799  186.63   3.63416
  -1   3   2  4  1  o       1279.9236     1115.8154  197.38   3.61287
  -3   2   1  4  1  o       4221.8706     3620.8538    6.05   3.60653
  -3   1   2  4  1  o        261.7248      224.9917  103.96   3.60420
  -1   3   2  4  1  o          0.0000     1115.8154  197.38   3.61287
  -3   2   1  4  1  o          0.0000     3620.8538    6.05   3.60653
  -3   1   2  4  1  o          0.0000      224.9917  103.96   3.60420
   2   3   1  4  1  o        454.3516      442.0699   27.77   3.57583
  -2   1   3  4  1  o        201.7965      197.9916  342.16   3.56979
   2   3   1  4  1  o          0.0000      442.0699   27.77   3.57583
  -2   1   3  4  1  o          0.0000      197.9916  342.16   3.56979
   1   3   2  4  1  o      15130.1377    15206.6650  189.16   3.55555
   3   0   2  2  1  o       1302.7518     1309.5023    4.47   3.55553
  -1   2   3  4  1  o       8545.7217     8829.3652  179.32   3.55184
   1   3   2  4  1  o          0.0000    15206.6650  189.16   3.55555
   3   0   2  2  1  o          0.0000     1309.5023    4.47   3.55553
  -1   2   3  4  1  o          0.0000     8829.3652  179.32   3.55184
   3   2   1  4  1  o        263.1600      263.1600  196.93   3.52199
   3   2   1  4  1  o          0.0000      263.1600  196.93   3.52199
   1   2   3  4  1  o         11.7940       11.7940  272.57   3.47100
   1   2   3  4  1  o          0.0000       11.7940  272.57   3.47100
   3   1   2  4  1  o      17337.7207    18125.9805    5.88   3.44110
   3   1   2  4  1  o          0.0000    18125.9805    5.88   3.44110
   0   4   0  2  1  o     459534.7500   460035.7812  182.06   3.41846
   2   1   3  4  1  o       6808.3877     6766.6431    8.68   3.41112
   0   4   0  2  1  o          0.0000   460035.7812  182.06   3.41846
   2   1   3  4  1  o          0.0000     6766.6431    8.68   3.41112
   1   4   0  4  1  o       2969.8462     2901.2817  182.16   3.30990
   4   0   0  2  1  o     514635.1875   503283.8750  182.73   3.30966
   0   4   1  4  1  o      53753.6719    53194.8672  185.36   3.30450
   1   4   0  4  1  o          0.0000     2901.2817  182.16   3.30990
   4   0   0  2  1  o          0.0000   503283.8750  182.73   3.30966
   0   4   1  4  1  o          0.0000    53194.8672  185.36   3.30450
  -2   3   2  4  1  o       4363.0977     4308.0610    3.64   3.28827
  -2   3   2  4  1  o          0.0000     4308.0610    3.64   3.28827
  -3   2   2  4  1  o       3429.5537     3322.9758    3.82   3.27867
  -3   2   2  4  1  o          0.0000     3322.9758    3.82   3.27867
  -2   2   3  4  1  o       7865.8853     7276.2769    6.76   3.25271
  -2   2   3  4  1  o          0.0000     7276.2769    6.76   3.25271
   0   0   4  2  1  o     450539.0938   450232.3750  183.47   3.22642
   0   0   4  2  1  o          0.0000   450232.3750  183.47   3.22642
   4   1   0  4  1  o       3107.8862     3111.1248  187.22   3.21678
  -1   4   1  4  1  o        585.2585      585.7645  208.57   3.21644
   4   1   0  4  1  o          0.0000     3111.1248  187.22   3.21678
  -1   4   1  4  1  o          0.0000      585.7645  208.57   3.21644
   2   3   2  4  1  o       6391.1899     6239.6943  178.23   3.20316
   1   4   1  4  1  o      11944.8145    11665.2100    8.17   3.19592
   2   3   2  4  1  o          0.0000     6239.6943  178.23   3.20316
   1   4   1  4  1  o          0.0000    11665.2100    8.17   3.19592
  -1   0   4  2  1  o      12769.9600    12855.2441    1.93   3.17373
   3   3   0  4  1  o        931.5901      945.1854  193.67   3.17043
  -1   0   4  2  1  o          0.0000    12855.2441    1.93   3.17373
   3   3   0  4  1  o          0.0000      945.1854  193.67   3.17043
  -4   1   1  4  1  o       5931.5703     5829.4414   11.25   3.15984
   3   2   2  4  1  o       6598.9785     6358.0405  180.87   3.15447
  -4   1   1  4  1  o          0.0000     5829.4414   11.25   3.15984
   3   2   2  4  1  o          0.0000     6358.0405  180.87   3.15447
   0   1   4  4  1  o       1404.6779     1382.6667  178.35   3.14019
   0   1   4  4  1  o          0.0000     1382.6667  178.35   3.14019
   2   2   3  4  1  o       1408.0238     1513.6278  178.81   3.13132
   0   3   3  4  1  o       6663.2236     7148.5781  182.48   3.12850
   2   2   3  4  1  o          0.0000     1513.6278  178.81   3.13132
   0   3   3  4  1  o          0.0000     7148.5781  182.48   3.12850
  -3   3   1  4  1  o        340.8798      342.8847  196.66   3.10650
  -3   3   1  4  1  o          0.0000      342.8847  196.66   3.10650
   1   0   4  2  1  o        427.0052      442.0304  179.32   3.09701
  -1   1   4  4  1  o       3035.2961     3662.2991  179.62   3.09155
   1   0   4  2  1  o          0.0000      442.0304  179.32   3.09701
  -3   1   3  4  1  o        377.0833      493.4437   41.76   3.08411
   4   1   1  4  1  o        308.0333      403.0912  345.89   3.08410
  -1   1   4  4  1  o          0.0000     3662.2991  179.62   3.09155
  -3   1   3  4  1  o          0.0000      493.4437   41.76   3.08411
   4   1   1  4  1  o          0.0000      403.0912  345.89   3.08410
  -1   3   3  4  1  o          4.6595        4.6595  286.14   3.07135
  -1   3   3  4  1  o          0.0000        4.6595  286.14   3.07135
   3   3   1  4  1  o       1319.8634     1319.8634  190.76   3.05199
   3   3   1  4  1  o          0.0000     1319.8634  190.76   3.05199
   2   4   0  4  1  o       7224.3813     7820.7036  179.46   3.03734
   2   4   0  4  1  o          0.0000     7820.7036  179.46   3.03734
   0   4   2  4  1  o       5290.2764     5596.7690    1.10   3.02076
   1   1   4  4  1  o       2181.4932     2307.9949    1.70   3.02050
   1   3   3  4  1  o        368.0893      389.5941  200.85   3.01863
   0   4   2  4  1  o          0.0000     5596.7690    1.10   3.02076
   1   1   4  4  1  o          0.0000     2307.9949    1.70   3.02050
   1   3   3  4  1  o          0.0000      389.5941  200.85   3.01863
  -4   0   2  2  1  o       1692.5824     1977.5193    6.31   3.01063
  -4   0   2  2  1  o          0.0000     1977.5193    6.31   3.01063
   4   2   0  4  1  o       2110.3455     2406.4968  354.07   2.97897
  -2   4   1  4  1  o        222.5121      239.0339   42.45   2.97278
   4   2   0  4  1  o          0.0000     2406.4968  354.07   2.97897
  -2   4   1  4  1  o          0.0000      239.0339   42.45   2.97278
  -2   0   4  2  1  o     162098.9531   163510.0156    3.98   2.96296
  -1   4   2  4  1  o       2867.6289     2876.2068  180.26   2.96110
  -2   0   4  2  1  o          0.0000   163510.0156    3.98   2.96296
  -1   4   2  4  1  o          0.0000     2876.2068  180.26   2.96110
   2   4   1  4  1  o        226.5974      208.6319  163.39   2.94060
  -4   1   2  4  1  o       1301.2639     1193.6104  355.57   2.94021
  -4   2   1  4  1  o        126.1061      111.6127   31.00   2.93358
   2   4   1  4  1  o          0.0000      208.6319  163.39   2.94060
  -4   1   2  4  1  o          0.0000     1193.6104  355.57   2.94021
   3   1   3  4  1  o       1825.5724     1622.7478  171.35   2.93183
   1   4   2  4  1  o       1669.9304     1509.3398  358.77   2.92929
  -4   2   1  4  1  o          0.0000      111.6127   31.00   2.93358
   3   1   3  4  1  o          0.0000     1622.7478  171.35   2.93183
   1   4   2  4  1  o          0.0000     1509.3398  358.77   2.92929
   0   2   4  4  1  o      17156.7266    17140.8477  186.07   2.91783
   0   2   4  4  1  o          0.0000    17140.8477  186.07   2.91783
  -2   1   4  4  1  o         67.1436       65.3738  119.19   2.89576
  -3   3   2  4  1  o      50602.6797    50134.7852    7.20   2.88955
  -2   1   4  4  1  o          0.0000       65.3738  119.19   2.89576
   4   0   2  2  1  o      51979.6914    51635.9688  182.23   2.88330
  -3   3   2  4  1  o          0.0000    50134.7852    7.20   2.88955
  -1   2   4  4  1  o       2748.9470     2722.3018  181.77   2.87869
   4   0   2  2  1  o          0.0000    51635.9688  182.23   2.88330
  -3   2   3  4  1  o      53902.3594    53674.2969  182.28   2.87268
   4   2   1  4  1  o        606.9929      604.4382    3.14   2.87267
  -2   3   3  4  1  o      54920.8125    54795.4727  182.73   2.87173
  -1   2   4  4  1  o          0.0000     2722.3018  181.77   2.87869
  -3   2   3  4  1  o          0.0000    53674.2969  182.28   2.87268
   4   2   1  4  1  o          0.0000      604.4382    3.14   2.87267
  -2   3   3  4  1  o          0.0000    54795.4727  182.73   2.87173
   2   0   4  2  1  o      34918.5820    32996.0039  181.57   2.84134
   2   0   4  2  1  o          0.0000    32996.0039  181.57   2.84134
   4   1   2  4  1  o       8096.7168     8115.2881  182.33   2.82126
   1   2   4  4  1  o        830.9621      833.2841    7.89   2.82107
   4   1   2  4  1  o          0.0000     8115.2881  182.33   2.82126
   1   2   4  4  1  o          0.0000      833.2841    7.89   2.82107
   3   3   2  4  1  o      67976.8672    68032.8828    5.73   2.80345
   3   3   2  4  1  o          0.0000    68032.8828    5.73   2.80345
   2   3   3  4  1  o      30422.1758    30780.6621    4.01   2.78716
   2   1   4  4  1  o       3434.1458     3491.4690  187.71   2.78191
   2   3   3  4  1  o          0.0000    30780.6621    4.01   2.78716
   2   1   4  4  1  o          0.0000     3491.4690  187.71   2.78191
  -2   4   2  4  1  o       1125.8473     1042.4885    3.08   2.77433
  -2   4   2  4  1  o          0.0000     1042.4885    3.08   2.77433
  -4   2   2  4  1  o        806.3998      773.4219    2.52   2.75532
  -4   2   2  4  1  o          0.0000      773.4219    2.52   2.75532
   3   2   3  4  1  o      42376.7930    43055.9258    3.15   2.74842
   3   2   3  4  1  o          0.0000    43055.9258    3.15   2.74842
   2   4   2  4  1  o         50.5306       50.9948  194.09   2.72264
  -2   2   4  4  1  o       8047.1797     8904.4395    7.26   2.71864
   2   4   2  4  1  o          0.0000       50.9948  194.09   2.72264
  -2   2   4  4  1  o          0.0000     8904.4395    7.26   2.71864
   3   4   0  4  1  o       1570.0104     1726.0037    3.45   2.70246
   3   4   0  4  1  o          0.0000     1726.0037    3.45   2.70246
   1   5   0  4  1  o         51.9993       56.2196  176.06   2.67822
   4   3   0  4  1  o       1291.0847     1393.3353  339.39   2.67810
   0   4   3  4  1  o      13551.9336    14296.9775  189.41   2.67635
   0   5   1  4  1  o       5980.5918     6246.2656  181.87   2.67536
  -3   0   4  2  1  o          9.7367       10.0256  173.34   2.67314
   1   5   0  4  1  o          0.0000       56.2196  176.06   2.67822
   4   3   0  4  1  o          0.0000     1393.3353  339.39   2.67810
   0   4   3  4  1  o          0.0000    14296.9775  189.41   2.67635
   0   5   1  4  1  o          0.0000     6246.2656  181.87   2.67536
  -3   0   4  2  1  o          0.0000       10.0256  173.34   2.67314
  -3   4   1  4  1  o       4124.0220     4054.8652    0.34   2.66254
   4   2   2  4  1  o         96.0078       88.0336  343.52   2.65671
  -3   4   1  4  1  o          0.0000     4054.8652    0.34   2.66254
   4   2   2  4  1  o          0.0000       88.0336  343.52   2.65671
   5   0   0  2  1  o       1079.5684     1055.0841  168.72   2.64773
  -4   3   1  4  1  o       5516.6055     5476.1479    7.68   2.64498
  -4   1   3  4  1  o         64.9252       64.7247   31.31   2.64253
   5   0   0  2  1  o          0.0000     1055.0841  168.72   2.64773
  -1   4   3  4  1  o      40212.3320    40110.3359    5.17   2.64030
  -4   3   1  4  1  o          0.0000     5476.1479    7.68   2.64498
  -4   1   3  4  1  o          0.0000       64.7247   31.31   2.64253
  -1   4   3  4  1  o          0.0000    40110.3359    5.17   2.64030
   0   3   4  4  1  o       3547.4827     3523.4485  178.12   2.63342
  -1   5   1  4  1  o       2975.6531     2918.6101    0.18   2.62798
   3   4   1  4  1  o       5556.8652     5450.2407  180.43   2.62797
   0   3   4  4  1  o          0.0000     3523.4485  178.12   2.63342
   2   2   4  4  1  o       9701.8457     9455.3193    2.04   2.62378
  -3   1   4  4  1  o       6564.6646     6395.6611  184.27   2.62347
  -1   5   1  4  1  o          0.0000     2918.6101    0.18   2.62798
   3   4   1  4  1  o          0.0000     5450.2407  180.43   2.62797
   2   2   4  4  1  o          0.0000     9455.3193    2.04   2.62378
  -3   1   4  4  1  o          0.0000     6395.6611  184.27   2.62347
   1   5   1  4  1  o        317.6304      306.0883  342.10   2.61676
   1   5   1  4  1  o          0.0000      306.0883  342.10   2.61676
   1   4   3  4  1  o      19461.4844    19392.6367  184.40   2.60659
  -1   3   4  4  1  o       1132.4078     1130.3424  179.37   2.60453
   1   4   3  4  1  o          0.0000    19392.6367  184.40   2.60659
  -3   3   3  4  1  o       6932.7769     6680.0684    6.54   2.60008
   4   3   1  4  1  o       3216.3423     3098.6711  182.48   2.60007
   5   1   0  4  1  o       4283.2715     4079.6494    2.83   2.59945
  -1   3   4  4  1  o          0.0000     1130.3424  179.37   2.60453
  -3   3   3  4  1  o          0.0000     6680.0684    6.54   2.60008
   4   3   1  4  1  o          0.0000     3098.6711  182.48   2.60007
   5   1   0  4  1  o          0.0000     4079.6494    2.83   2.59945
  -5   1   1  4  1  o      11498.6572     6023.4849    3.57   2.57442
  -5   1   1  4  1  o          0.0000     6023.4849    3.57   2.57442
   1   3   4  4  1  o        823.2450      823.2450  186.62   2.56163
   1   3   4  4  1  o          0.0000      823.2450  186.62   2.56163
   3   0   4  2  1  o        968.8278      968.8278  183.77   2.54094
   0   1   5  4  1  o       1378.7705     3987.0969  177.86   2.53634
   3   0   4  2  1  o          0.0000      968.8278  183.77   2.54094
   0   1   5  4  1  o          0.0000     3987.0969  177.86   2.53634
   2   5   0  4  1  o        154.9049      192.2889   61.38   2.52755
   5   1   1  4  1  o        821.0927     1035.9113   16.20   2.52290
  -3   4   2  4  1  o       2271.8196     2846.4932    1.66   2.52212
   2   5   0  4  1  o          0.0000      192.2889   61.38   2.52755
   0   5   2  4  1  o        381.6780      438.4877  177.14   2.51797
   5   1   1  4  1  o          0.0000     1035.9113   16.20   2.52290
  -3   4   2  4  1  o          0.0000     2846.4932    1.66   2.52212
  -1   1   5  4  1  o        497.6828      536.5983  357.67   2.51545
   4   1   3  4  1  o       6676.9634     7065.7412  191.16   2.51461
  -4   3   2  4  1  o        418.3824      422.5255  343.22   2.51210
   0   5   2  4  1  o          0.0000      438.4877  177.14   2.51797
  -2   4   3  4  1  o        204.3747      201.0305   44.59   2.51024
  -1   1   5  4  1  o          0.0000      536.5983  357.67   2.51545
   4   1   3  4  1  o          0.0000     7065.7412  191.16   2.51461
   3   3   3  4  1  o       4239.5796     4032.2246    4.80   2.50686
  -4   2   3  4  1  o        542.4891      512.9799    4.76   2.50587
  -4   3   2  4  1  o          0.0000      422.5255  343.22   2.51210
  -2   4   3  4  1  o          0.0000      201.0305   44.59   2.51024
   3   3   3  4  1  o          0.0000     4032.2246    4.80   2.50686
  -4   2   3  4  1  o          0.0000      512.9799    4.76   2.50587
   3   1   4  4  1  o       3946.9373     3862.2046  178.80   2.49818
  -5   0   2  2  1  o        237.0468      235.2400   42.34   2.49661
   3   1   4  4  1  o          0.0000     3862.2046  178.80   2.49818
  -5   0   2  2  1  o          0.0000      235.2400   42.34   2.49661
  -2   5   1  4  1  o       6252.3931     6354.4624    4.69   2.48998
  -3   2   4  4  1  o       1050.4209     1067.8428  185.35   2.48961
  -2   3   4  4  1  o        169.3753      173.2237  126.42   2.48420
  -2   5   1  4  1  o          0.0000     6354.4624    4.69   2.48998
  -3   2   4  4  1  o          0.0000     1067.8428  185.35   2.48961
  -1   5   2  4  1  o      15716.9941    16089.5508  183.38   2.48310
  -2   3   4  4  1  o          0.0000      173.2237  126.42   2.48420
  -1   5   2  4  1  o          0.0000    16089.5508  183.38   2.48310
   2   5   1  4  1  o       5918.3950     6256.3550  181.94   2.47098
   5   2   0  4  1  o       3442.3198     3706.4434    5.61   2.46905
   1   1   5  4  1  o       1605.9664     1756.1660  199.10   2.46732
   2   5   1  4  1  o          0.0000     6256.3550  181.94   2.47098
   1   5   2  4  1  o       4573.0713     5035.5625  188.64   2.46426
   3   4   2  4  1  o        246.0067      270.8771    2.00   2.46425
   5   2   0  4  1  o          0.0000     3706.4434    5.61   2.46905
   1   1   5  4  1  o          0.0000     1756.1660  199.10   2.46732
   1   5   2  4  1  o          0.0000     5035.5625  188.64   2.46426
   3   4   2  4  1  o          0.0000      270.8771    2.00   2.46425
  -5   1   2  4  1  o      14069.6865    13882.4307  183.66   2.45601
   2   4   3  4  1  o       1410.4875     1374.0991    6.77   2.45317
  -5   1   2  4  1  o          0.0000    13882.4307  183.66   2.45601
  -5   2   1  4  1  o        794.8749      771.9123  181.33   2.44757
   2   4   3  4  1  o          0.0000     1374.0991    6.77   2.45317
  -5   2   1  4  1  o          0.0000      771.9123  181.33   2.44757
   4   3   2  4  1  o       3450.0850     3917.0222  186.68   2.43669
   4   3   2  4  1  o          0.0000     3917.0222  186.68   2.43669
   0   2   5  4  1  o       2756.4719     2669.9304  174.70   2.41478
   2   3   4  4  1  o       2745.6091     2732.6482  196.19   2.41120
  -2   1   5  4  1  o       1957.3163     1952.1346   11.44   2.41089
   0   2   5  4  1  o          0.0000     2669.9304  174.70   2.41478
   2   3   4  4  1  o          0.0000     2732.6482  196.19   2.41120
   5   0   2  2  1  o        202.1564      205.4512  299.48   2.40504
  -2   1   5  4  1  o          0.0000     1952.1346   11.44   2.41089
   5   2   1  4  1  o       8821.9395     8953.4707  187.27   2.40317
   5   0   2  2  1  o          0.0000      205.4512  299.48   2.40504
   5   2   1  4  1  o          0.0000     8953.4707  187.27   2.40317
  -1   2   5  4  1  o       2857.1213     2878.7773    9.87   2.39672
   4   2   3  4  1  o      12676.3477    12736.6211    5.85   2.39600
  -1   2   5  4  1  o          0.0000     2878.7773    9.87   2.39672
   4   2   3  4  1  o          0.0000    12736.6211    5.85   2.39600
   3   2   4  4  1  o       3140.9072     3056.3552    2.46   2.38177
   4   4   0  4  1  o      66972.8828    65780.0781    3.58   2.37782
   3   2   4  4  1  o          0.0000     3056.3552    2.46   2.38177
  -4   0   4  2  1  o      29312.0449    28777.3535    5.62   2.37426
   4   4   0  4  1  o          0.0000    65780.0781    3.58   2.37782
  -2   5   2  4  1  o       1117.9843     1078.1158  180.34   2.36985
   5   1   2  4  1  o        782.1539      747.8981  357.69   2.36868
  -4   0   4  2  1  o          0.0000    28777.3535    5.62   2.37426
  -2   5   2  4  1  o          0.0000     1078.1158  180.34   2.36985
   5   1   2  4  1  o          0.0000      747.8981  357.69   2.36868
   1   2   5  4  1  o       8185.0615     7715.1582  185.82   2.35499
  -4   4   1  4  1  o      11131.8291    10524.7402    7.11   2.35454
   1   2   5  4  1  o          0.0000     7715.1582  185.82   2.35499
  -4   4   1  4  1  o          0.0000    10524.7402    7.11   2.35454
   0   4   4  4  1  o      44307.1719    44024.4219    3.93   2.34638
  -5   2   2  4  1  o        109.1131      108.8665   48.77   2.34515
   0   4   4  4  1  o          0.0000    44024.4219    3.93   2.34638
  -5   2   2  4  1  o          0.0000      108.8665   48.77   2.34515
  -4   1   4  4  1  o       2762.1270     2732.5403  187.13   2.33926
   2   5   2  4  1  o         24.0951       23.5320   71.51   2.33739
  -4   1   4  4  1  o          0.0000     2732.5403  187.13   2.33926
   2   5   2  4  1  o          0.0000       23.5320   71.51   2.33739
   2   1   5  4  1  o        591.2028      527.8864  200.45   2.32813
  -1   4   4  4  1  o        647.7899      585.2534  359.30   2.32588
   3   5   0  4  1  o         65.9555       60.4474  315.64   2.32458
  -3   4   3  4  1  o       1769.6858     1663.0275  185.05   2.32271
   4   4   1  4  1  o       5441.3960     5113.8618    6.09   2.32270
   2   1   5  4  1  o          0.0000      527.8864  200.45   2.32813
  -1   4   4  4  1  o          0.0000      585.2534  359.30   2.32588
   3   5   0  4  1  o          0.0000       60.4474  315.64   2.32458
  -4   3   3  4  1  o       8327.2373     8166.7681    4.12   2.31874
  -3   4   3  4  1  o          0.0000     1663.0275  185.05   2.32271
   4   4   1  4  1  o          0.0000     5113.8618    6.09   2.32270
  -4   3   3  4  1  o          0.0000     8166.7681    4.12   2.31874
   0   5   3  4  1  o       2396.7749     2311.7495  178.59   2.30790
  -3   3   4  4  1  o       1675.0923     1666.3103  188.10   2.30584
  -2   2   5  4  1  o       8452.9473     8419.4512  185.79   2.30577
   0   5   3  4  1  o          0.0000     2311.7495  178.59   2.30790
  -3   3   4  4  1  o          0.0000     1666.3103  188.10   2.30584
  -2   2   5  4  1  o          0.0000     8419.4512  185.79   2.30577
  -3   5   1  4  1  o        494.6053      597.2773   11.69   2.29902
   1   4   4  4  1  o        158.6052      195.5691   13.39   2.29517
  -3   5   1  4  1  o          0.0000      597.2773   11.69   2.29902
   1   4   4  4  1  o          0.0000      195.5691   13.39   2.29517
   5   3   0  4  1  o         41.2227       39.6323  138.54   2.28947
  -1   5   3  4  1  o         54.9313       49.1536  158.03   2.28466
   5   3   0  4  1  o          0.0000       39.6323  138.54   2.28947
  -1   5   3  4  1  o          0.0000       49.1536  158.03   2.28466
   0   6   0  2  1  o       2680.8354     2463.0801  195.54   2.27898
  -5   1   3  4  1  o       3680.9934     3396.9468  193.56   2.27809
   3   5   1  4  1  o       3108.9424     2907.4248    8.44   2.27666
   0   6   0  2  1  o          0.0000     2463.0801  195.54   2.27898
  -5   1   3  4  1  o          0.0000     3396.9468  193.56   2.27809
  -5   3   1  4  1  o       2274.9658     2387.9961  182.16   2.27232
   3   5   1  4  1  o          0.0000     2907.4248    8.44   2.27666
   5   2   2  4  1  o        883.0027     1044.1685  196.90   2.26876
  -5   3   1  4  1  o          0.0000     2387.9961  182.16   2.27232
   5   2   2  4  1  o          0.0000     1044.1685  196.90   2.26876
   1   5   3  4  1  o        795.5135      858.9137  175.62   2.26271
  -4   4   2  4  1  o         14.3666       14.3091  299.25   2.25934
   1   5   3  4  1  o          0.0000      858.9137  175.62   2.26271
   3   4   3  4  1  o       5482.8833     5368.0869  183.86   2.25553
  -4   4   2  4  1  o          0.0000       14.3091  299.25   2.25934
   4   0   4  2  1  o      80782.7031    79988.7344    5.32   2.25123
  -3   1   5  4  1  o       1949.5758     1931.2162   13.97   2.25039
   3   4   3  4  1  o          0.0000     5368.0869  183.86   2.25553
   0   3   5  4  1  o       5747.2437     5664.0239    3.78   2.24600
   1   6   0  4  1  o       2987.8887     2944.2407    1.21   2.24594
   4   0   4  2  1  o          0.0000    79988.7344    5.32   2.25123
  -3   1   5  4  1  o          0.0000     1931.2162   13.97   2.25039
   0   6   1  4  1  o       5951.5615     5839.1440  185.94   2.24425
  -4   2   4  4  1  o         90.5396       88.3694    8.61   2.24287
   0   3   5  4  1  o          0.0000     5664.0239    3.78   2.24600
   1   6   0  4  1  o          0.0000     2944.2407    1.21   2.24594
  -2   4   4  4  1  o       1713.2628     1634.1167  192.65   2.23898
   0   6   1  4  1  o          0.0000     5839.1440  185.94   2.24425
  -4   2   4  4  1  o          0.0000       88.3694    8.61   2.24287
   5   3   1  4  1  o        569.8459      535.8016  175.57   2.23665
  -2   4   4  4  1  o          0.0000     1634.1167  192.65   2.23898
   2   2   5  4  1  o          6.1181        5.7687  261.72   2.23305
  -1   3   5  4  1  o        559.7366      538.6403  356.08   2.23146
   5   3   1  4  1  o          0.0000      535.8016  175.57   2.23665
   4   3   3  4  1  o        942.7054      917.1201  187.02   2.23087
   2   2   5  4  1  o          0.0000        5.7687  261.72   2.23305
  -1   3   5  4  1  o          0.0000      538.6403  356.08   2.23146
   4   3   3  4  1  o          0.0000      917.1201  187.02   2.23087
   4   1   4  4  1  o        937.1089     1306.8220    8.72   2.22132
   3   3   4  4  1  o        473.6133      718.0305   15.21   2.21937
  -1   6   1  4  1  o        341.6590      520.7611  207.79   2.21606
   4   1   4  4  1  o          0.0000     1306.8220    8.72   2.22132
   3   3   4  4  1  o          0.0000      718.0305   15.21   2.21937
  -1   6   1  4  1  o          0.0000      520.7611  207.79   2.21606
   1   6   1  4  1  o        906.6658     1151.3999   20.69   2.20932
  -3   5   2  4  1  o        326.7039      380.2941   47.17   2.20680
   6   0   0  2  1  o      12406.0098    14262.2627    8.40   2.20644
   4   4   2  4  1  o          7.7582        8.2682   63.73   2.20401
   1   6   1  4  1  o          0.0000     1151.3999   20.69   2.20932
  -3   5   2  4  1  o          0.0000      380.2941   47.17   2.20680
   6   0   0  2  1  o          0.0000    14262.2627    8.40   2.20644
  -2   5   3  4  1  o         79.9398       79.9617   13.20   2.19883
   4   4   2  4  1  o          0.0000        8.2682   63.73   2.20401
   1   3   5  4  1  o        666.1501      666.8266  187.85   2.19766
  -2   5   3  4  1  o          0.0000       79.9617   13.20   2.19883
   1   3   5  4  1  o          0.0000      666.8266  187.85   2.19766
  -5   3   2  4  1  o      11705.8906    11476.5068  187.15   2.18965
  -5   2   3  4  1  o      17215.6680    16876.4277  358.14   2.18878
   2   4   4  4  1  o       5464.2285     5545.0391    4.99   2.18509
  -5   3   2  4  1  o          0.0000    11476.5068  187.15   2.18965
  -5   2   3  4  1  o          0.0000    16876.4277  358.14   2.18878
   2   4   4  4  1  o          0.0000     5545.0391    4.99   2.18509
   6   1   0  4  1  o        550.1337      701.6996  358.59   2.17827
   5   1   3  4  1  o        402.8417      532.8660  185.75   2.17512
   6   1   0  4  1  o          0.0000      701.6996  358.59   2.17827
   5   1   3  4  1  o          0.0000      532.8660  185.75   2.17512
   3   5   2  4  1  o        500.6271      361.1047  133.60   2.16772
  -6   1   1  4  1  o        100.5456       69.2854  303.06   2.16663
  -3   2   5  4  1  o        379.0963      255.5738  189.01   2.16418
   3   5   2  4  1  o          0.0000      361.1047  133.60   2.16772
  -6   1   1  4  1  o          0.0000       69.2854  303.06   2.16663
   2   5   3  4  1  o         55.5264       43.5680  270.68   2.16016
  -3   2   5  4  1  o          0.0000      255.5738  189.01   2.16418
  -2   3   5  4  1  o       2426.2837     2192.7295    3.61   2.15750
   2   6   0  4  1  o      13712.3223    13616.1914    4.92   2.15484
   2   5   3  4  1  o          0.0000       43.5680  270.68   2.16016
  -2   3   5  4  1  o          0.0000     2192.7295    3.61   2.15750
   3   1   5  4  1  o       6752.8066     6779.0542   11.07   2.15098
   0   0   6  2  1  o        183.0536      183.6971    2.50   2.15094
   2   6   0  4  1  o          0.0000    13616.1914    4.92   2.15484
   0   6   2  4  1  o        940.4607      912.2827    0.06   2.14889
   3   1   5  4  1  o          0.0000     6779.0542   11.07   2.15098
   0   0   6  2  1  o          0.0000      183.6971    2.50   2.15094
   0   6   2  4  1  o          0.0000      912.2827    0.06   2.14889
  -1   0   6  2  1  o       2456.9624     2056.9365   22.01   2.14121
   4   2   4  4  1  o       5571.6411     4671.5332    7.51   2.13829
  -1   0   6  2  1  o          0.0000     2056.9365   22.01   2.14121
   4   2   4  4  1  o          0.0000     4671.5332    7.51   2.13829
  -2   6   1  4  1  o      15682.9316    14535.8145    2.99   2.13142
   6   1   1  4  1  o         19.4359       18.3506  128.90   2.12962
  -1   6   2  4  1  o        513.7488      491.6245   18.90   2.12710
   5   3   2  4  1  o       9191.4502     8796.0449  357.73   2.12708
  -2   6   1  4  1  o          0.0000    14535.8145    2.99   2.13142
   0   1   6  4  1  o         11.7536       11.3263  215.79   2.12482
   6   1   1  4  1  o          0.0000       18.3506  128.90   2.12962
  -6   0   2  2  1  o      18040.1367    17565.3633  184.99   2.12261
  -1   6   2  4  1  o          0.0000      491.6245   18.90   2.12710
   5   3   2  4  1  o          0.0000     8796.0449  357.73   2.12708
   0   1   6  4  1  o          0.0000       11.3263  215.79   2.12482
   2   6   1  4  1  o       3204.9460     3176.2405    2.22   2.11946
  -6   0   2  2  1  o          0.0000    17565.3633  184.99   2.12261
  -4   4   3  4  1  o       3552.2502     3472.0632    5.05   2.11557
  -1   1   6  4  1  o        243.4691      237.6764  185.40   2.11543
   1   6   2  4  1  o        763.1096      743.6415  196.19   2.11522
   2   6   1  4  1  o          0.0000     3176.2405    2.22   2.11946
  -4   4   3  4  1  o          0.0000     3472.0632    5.05   2.11557
  -1   1   6  4  1  o          0.0000      237.6764  185.40   2.11543
   1   6   2  4  1  o          0.0000      743.6415  196.19   2.11522
   4   5   0  4  1  o       2257.2620     2265.2002  195.01   2.10818
  -3   4   4  4  1  o       2015.2448     2054.5610  184.42   2.10576
  -4   3   4  4  1  o        379.0566      386.4225  218.08   2.10570
   1   0   6  2  1  o        519.5990      529.3742  327.79   2.10545
   4   5   0  4  1  o          0.0000     2265.2002  195.01   2.10818
  -5   0   4  2  1  o       4602.0405     4532.1172  184.92   2.10232
  -3   4   4  4  1  o          0.0000     2054.5610  184.42   2.10576
  -4   3   4  4  1  o          0.0000      386.4225  218.08   2.10570
   1   0   6  2  1  o          0.0000      529.3742  327.79   2.10545
   6   2   0  4  1  o       9219.7852     8811.5117    7.51   2.09980
   2   3   5  4  1  o         23.0399       21.7921  227.07   2.09757
  -6   1   2  4  1  o        188.6222      178.3868  357.88   2.09749
  -5   0   4  2  1  o          0.0000     4532.1172  184.92   2.10232
   5   2   3  4  1  o       1646.8600     1556.9946    1.60   2.09698
   6   2   0  4  1  o          0.0000     8811.5117    7.51   2.09980
   5   4   0  4  1  o       1285.2108     1224.2179    0.18   2.09327
   2   3   5  4  1  o          0.0000       21.7921  227.07   2.09757
  -6   1   2  4  1  o          0.0000      178.3868  357.88   2.09749
  -4   5   1  4  1  o        894.5095      855.4375  347.92   2.09191
   5   2   3  4  1  o          0.0000     1556.9946    1.60   2.09698
  -6   2   1  4  1  o       6571.0483     6359.7754  190.29   2.08938
   5   4   0  4  1  o          0.0000     1224.2179    0.18   2.09327
  -4   5   1  4  1  o          0.0000      855.4375  347.92   2.09191
   0   5   4  4  1  o        408.5662      413.9388  168.19   2.08618
  -6   2   1  4  1  o          0.0000     6359.7754  190.29   2.08938
   0   5   4  4  1  o          0.0000      413.9388  168.19   2.08618
   1   1   6  4  1  o       1895.3955     2165.7827  166.87   2.08093
  -5   4   1  4  1  o         83.5266       96.2630  161.54   2.08014
  -2   0   6  2  1  o       9411.8730    10904.7324    0.19   2.07840
  -5   1   4  4  1  o       1802.1611     2085.6841    4.36   2.07790
   1   1   6  4  1  o          0.0000     2165.7827  166.87   2.08093
   3   2   5  4  1  o       1158.6438     1322.8145  356.46   2.07532
  -5   4   1  4  1  o          0.0000       96.2630  161.54   2.08014
  -2   0   6  2  1  o          0.0000    10904.7324    0.19   2.07840
  -5   1   4  4  1  o          0.0000     2085.6841    4.36   2.07790
  -1   5   4  4  1  o       3308.4097     3744.6445  359.95   2.07173
   3   2   5  4  1  o          0.0000     1322.8145  356.46   2.07532
  -3   5   3  4  1  o       2277.5806     2592.7249  188.72   2.06949
   4   5   1  4  1  o         33.5441       38.1859   36.99   2.06948
  -1   5   4  4  1  o          0.0000     3744.6445  359.95   2.07173
  -4   1   5  4  1  o       7989.0981     8977.1289  187.78   2.06597
  -3   5   3  4  1  o          0.0000     2592.7249  188.72   2.06949
   4   5   1  4  1  o          0.0000       38.1859   36.99   2.06948
  -4   1   5  4  1  o          0.0000     8977.1289  187.78   2.06597
  -5   3   3  4  1  o         78.1871       80.1761  339.91   2.06075
   0   4   5  4  1  o      17360.8418    17555.7266    6.05   2.05990
   6   2   1  4  1  o       1164.4222     1134.4852  184.46   2.05612
  -5   3   3  4  1  o          0.0000       80.1761  339.91   2.06075
  -2   1   6  4  1  o        316.6545      306.7597  356.43   2.05479
   0   4   5  4  1  o          0.0000    17555.7266    6.05   2.05990
  -2   6   2  4  1  o        158.5003      153.4336  177.94   2.05460
   6   0   2  2  1  o      11362.6924    10998.7520    7.23   2.05459
   5   4   1  4  1  o       3611.2126     3462.5732  195.59   2.05268
   0   2   6  4  1  o        445.1982      423.7077  184.37   2.05180
   6   2   1  4  1  o          0.0000     1134.4852  184.46   2.05612
   1   5   4  4  1  o        341.8296      316.7480  347.16   2.04994
  -2   1   6  4  1  o          0.0000      306.7597  356.43   2.05479
  -2   6   2  4  1  o          0.0000      153.4336  177.94   2.05460
   6   0   2  2  1  o          0.0000    10998.7520    7.23   2.05459
  -1   4   5  4  1  o        211.8027      190.8268  130.23   2.04866
   4   4   3  4  1  o       6833.2217     6085.9160   11.29   2.04820
   5   4   1  4  1  o          0.0000     3462.5732  195.59   2.05268
   0   2   6  4  1  o          0.0000      423.7077  184.37   2.05180
   1   5   4  4  1  o          0.0000      316.7480  347.16   2.04994
  -1   4   5  4  1  o          0.0000      190.8268  130.23   2.04866
  -1   2   6  4  1  o        575.2284      454.9217   29.22   2.04334
   4   4   3  4  1  o          0.0000     6085.9160   11.29   2.04820
  -3   3   5  4  1  o        502.9038      410.1925    9.37   2.04019
   3   4   4  4  1  o        985.1262      829.3672  180.69   2.03929
  -1   2   6  4  1  o          0.0000      454.9217   29.22   2.04334
  -3   3   5  4  1  o          0.0000      410.1925    9.37   2.04019
   3   4   4  4  1  o          0.0000      829.3672  180.69   2.03929
   2   6   2  4  1  o       2588.5278     2398.5591  182.28   2.03334
   6   1   2  4  1  o          5.6865        4.9686    8.03   2.03178
   2   6   2  4  1  o          0.0000     2398.5591  182.28   2.03334
  -6   2   2  4  1  o       4673.1528     3585.3403  186.98   2.02716
   6   1   2  4  1  o          0.0000        4.9686    8.03   2.03178
   3   6   0  4  1  o       1303.0847     1003.4953    2.24   2.02489
  -4   5   2  4  1  o        163.2780      126.8957  209.47   2.02429
   1   4   5  4  1  o       9469.8330     7729.0884  187.32   2.02241
  -6   2   2  4  1  o          0.0000     3585.3403  186.98   2.02716
   3   5   3  4  1  o       1980.9873     1668.3939  186.21   2.02155
   3   6   0  4  1  o          0.0000     1003.4953    2.24   2.02489
  -4   5   2  4  1  o          0.0000      126.8957  209.47   2.02429
   4   3   4  4  1  o        593.4301      581.7615   28.60   2.01845
   1   4   5  4  1  o          0.0000     7729.0884  187.32   2.02241
   3   5   3  4  1  o          0.0000     1668.3939  186.21   2.02155
  -5   4   2  4  1  o         16.9141       18.9092  161.88   2.01616
   2   0   6  2  1  o       2845.2476     3419.5674  179.70   2.01441
   0   6   3  4  1  o        742.5247      901.6097  191.34   2.01384
   4   3   4  4  1  o          0.0000      581.7615   28.60   2.01845
   1   2   6  4  1  o       1021.8806     1223.0823  191.07   2.01220
  -5   4   2  4  1  o          0.0000       18.9092  161.88   2.01616
  -2   5   4  4  1  o        125.0188      135.5786   45.45   2.00961
  -5   2   4  4  1  o        961.7394     1037.1840  357.35   2.00946
   2   0   6  2  1  o          0.0000     3419.5674  179.70   2.01441
   0   6   3  4  1  o          0.0000      901.6097  191.34   2.01384
  -3   6   1  4  1  o       2704.6565     2782.3770  185.35   2.00793
   1   2   6  4  1  o          0.0000     1223.0823  191.07   2.01220
  -2   5   4  4  1  o          0.0000      135.5786   45.45   2.00961
  -5   2   4  4  1  o          0.0000     1037.1840  357.35   2.00946
  -3   6   1  4  1  o          0.0000     2782.3770  185.35   2.00793
  -4   2   5  4  1  o        233.2743      257.3657    3.29   1.99866
  -1   6   3  4  1  o      16127.6592    17845.2520    6.44   1.99835
   5   0   4  2  1  o        143.9706      162.9367  325.68   1.99539
  -4   2   5  4  1  o          0.0000      257.3657    3.29   1.99866
  -1   6   3  4  1  o          0.0000    17845.2520    6.44   1.99835
   3   6   1  4  1  o        389.0959      437.9742  170.90   1.99298
   2   1   6  4  1  o       1067.2761     1200.3564  183.72   1.99290
  -2   4   5  4  1  o       1727.3212     1889.5388  196.64   1.99098
   5   0   4  2  1  o          0.0000      162.9367  325.68   1.99539
  -2   2   6  4  1  o       3966.9907     4149.6084  181.73   1.98854
   3   6   1  4  1  o          0.0000      437.9742  170.90   1.99298
   2   1   6  4  1  o          0.0000     1200.3564  183.72   1.99290
  -2   4   5  4  1  o          0.0000     1889.5388  196.64   1.99098
   6   3   0  4  1  o       2098.4175     2134.0530    4.79   1.98598
  -6   1   3  4  1  o       6441.3477     6546.6875  183.26   1.98581
   4   5   2  4  1  o        953.6005      971.7792  191.90   1.98420
  -2   2   6  4  1  o          0.0000     4149.6084  181.73   1.98854
   1   6   3  4  1  o       2404.2676     2461.0383  186.96   1.98361
   5   3   3  4  1  o        316.0081      323.5027   10.93   1.98360
   6   3   0  4  1  o          0.0000     2134.0530    4.79   1.98598
  -6   1   3  4  1  o          0.0000     6546.6875  183.26   1.98581
   4   5   2  4  1  o          0.0000      971.7792  191.90   1.98420
   1   6   3  4  1  o          0.0000     2461.0383  186.96   1.98361
   5   3   3  4  1  o          0.0000      323.5027   10.93   1.98360
  -6   3   1  4  1  o       9194.8164     9798.1953    3.04   1.97715
  -3   0   6  2  1  o        551.3506      574.6394  348.55   1.97531
   5   1   4  4  1  o       7439.2661     7633.7407  182.12   1.97447
  -6   3   1  4  1  o          0.0000     9798.1953    3.04   1.97715
  -3   0   6  2  1  o          0.0000      574.6394  348.55   1.97531
   2   5   4  4  1  o        183.2472      168.8824  263.01   1.97037
   5   1   4  4  1  o          0.0000     7633.7407  182.12   1.97447
   6   2   2  4  1  o       2084.7729     1842.6135   10.14   1.96766
   5   4   2  4  1  o         86.7732       76.7732  189.50   1.96700
   2   5   4  4  1  o          0.0000      168.8824  263.01   1.97037
   3   3   5  4  1  o       2157.0576     1966.1558  174.38   1.96523
   4   1   5  4  1  o        104.3231       98.3402  163.77   1.96422
   6   2   2  4  1  o          0.0000     1842.6135   10.14   1.96766
   5   4   2  4  1  o          0.0000       76.7732  189.50   1.96700
   3   3   5  4  1  o          0.0000     1966.1558  174.38   1.96523
   4   1   5  4  1  o          0.0000       98.3402  163.77   1.96422
  -3   1   6  4  1  o        652.9577      551.3576  206.78   1.95501
  -3   1   6  4  1  o          0.0000      551.3576  206.78   1.95501
  -4   4   4  4  1  o       2202.1753     1773.6832  191.56   1.95006
   6   3   1  4  1  o        799.9935      656.3019  348.16   1.94890
  -3   6   2  4  1  o        985.7417      876.1641  191.67   1.94561
  -4   4   4  4  1  o          0.0000     1773.6832  191.56   1.95006
   0   3   6  4  1  o       5416.6240     4865.9951  181.44   1.94522
   6   3   1  4  1  o          0.0000      656.3019  348.16   1.94890
   2   4   5  4  1  o       3416.0359     3211.7373    1.24   1.94360
  -3   6   2  4  1  o          0.0000      876.1641  191.67   1.94561
   0   3   6  4  1  o          0.0000     4865.9951  181.44   1.94522
  -2   6   3  4  1  o       1061.2704     1108.7085    3.36   1.94014
   2   4   5  4  1  o          0.0000     3211.7373    1.24   1.94360
  -1   3   6  4  1  o       1910.5931     2116.7339  181.32   1.93801
  -2   6   3  4  1  o          0.0000     1108.7085    3.36   1.94014
  -1   3   6  4  1  o          0.0000     2116.7339  181.32   1.93801
   1   7   0  4  1  o       1194.2574     1393.3960  184.76   1.93248
   2   2   6  4  1  o        150.7378      176.1635    2.38   1.93228
   0   7   1  4  1  o        250.9938      295.4607    4.79   1.93141
   1   7   0  4  1  o          0.0000     1393.3960  184.76   1.93248
   2   2   6  4  1  o          0.0000      176.1635    2.38   1.93228
   0   7   1  4  1  o          0.0000      295.4607    4.79   1.93141
  -6   2   3  4  1  o       4196.3989     4829.7764  183.82   1.92582
  -6   3   2  4  1  o        875.1812      991.6039  178.50   1.92419
  -6   2   3  4  1  o          0.0000     4829.7764  183.82   1.92582
  -6   3   2  4  1  o          0.0000      991.6039  178.50   1.92419
  -4   5   3  4  1  o       1493.1628     1584.9772  356.89   1.91894
   3   6   2  4  1  o       2169.3252     2289.8022    6.44   1.91867
   5   2   4  4  1  o       3445.4248     3407.2212  187.62   1.91547
  -5   4   3  4  1  o       2374.0835     2307.9741  195.15   1.91420
  -4   5   3  4  1  o          0.0000     1584.9772  356.89   1.91894
   3   6   2  4  1  o          0.0000     2289.8022    6.44   1.91867
   2   6   3  4  1  o       4050.9578     3911.6067    5.62   1.91343
  -1   7   1  4  1  o       3214.8706     3102.5918  186.08   1.91335
  -3   5   4  4  1  o       4572.2334     4377.7778    0.16   1.91161
   1   3   6  4  1  o       4505.5508     4311.2051   16.54   1.91138
   5   2   4  4  1  o          0.0000     3407.2212  187.62   1.91547
  -5   4   3  4  1  o          0.0000     2307.9741  195.15   1.91420
  -5   3   4  4  1  o       3270.2683     3106.4028    6.36   1.90904
   1   7   1  4  1  o       7094.2344     6737.8989  187.84   1.90901
   2   6   3  4  1  o          0.0000     3911.6067    5.62   1.91343
  -1   7   1  4  1  o          0.0000     3102.5918  186.08   1.91335
  -3   5   4  4  1  o          0.0000     4377.7778    0.16   1.91161
   1   3   6  4  1  o          0.0000     4311.2051   16.54   1.91138
   4   2   5  4  1  o        111.7414      104.1821    0.71   1.90611
  -5   3   4  4  1  o          0.0000     3106.4028    6.36   1.90904
   1   7   1  4  1  o          0.0000     6737.8989  187.84   1.90901
   6   1   3  4  1  o        916.7161      839.1335  178.40   1.90348
   5   5   0  4  1  o         18.9850       17.3101  119.88   1.90226
   4   2   5  4  1  o          0.0000      104.1821    0.71   1.90611
  -4   3   5  4  1  o       7600.9937     7018.1890  186.57   1.89977
   6   1   3  4  1  o          0.0000      839.1335  178.40   1.90348
  -3   2   6  4  1  o        714.9795      687.9072  191.39   1.89769
  -3   4   5  4  1  o        793.0878      763.3199  186.95   1.89768
   5   5   0  4  1  o          0.0000       17.3101  119.88   1.90226
  -4   3   5  4  1  o          0.0000     7018.1890  186.57   1.89977
   3   0   6  2  1  o        657.0917      708.7578  349.22   1.89423
  -3   2   6  4  1  o          0.0000      687.9072  191.39   1.89769
  -3   4   5  4  1  o          0.0000      763.3199  186.95   1.89768
  -5   5   1  4  1  o       4873.3438     5470.2847  183.38   1.89238
   7   0   0  2  1  o        104.7997      117.3560  254.99   1.89124
  -2   3   6  4  1  o         83.6622       93.4494  194.98   1.89107
   3   0   6  2  1  o          0.0000      708.7578  349.22   1.89423
  -5   5   1  4  1  o          0.0000     5470.2847  183.38   1.89238
   7   0   0  2  1  o          0.0000      117.3560  254.99   1.89124
  -2   3   6  4  1  o          0.0000       93.4494  194.98   1.89107
  -5   1   5  4  1  o       1196.1443     1071.5542  191.42   1.88135
   4   4   4  4  1  o       7606.5396     7004.5986  186.53   1.88015
   0   5   5  4  1  o        995.6206      972.2118    1.35   1.87710
   4   6   0  4  1  o       2292.1814     2240.5347  176.33   1.87702
  -5   1   5  4  1  o          0.0000     1071.5542  191.42   1.88135
   3   1   6  4  1  o       8167.7402     8045.3501  184.87   1.87631
   4   4   4  4  1  o          0.0000     7004.5986  186.53   1.88015
   2   7   0  4  1  o      31351.3203    31230.5352    3.75   1.87353
   7   1   0  4  1  o        471.1840      469.3391  174.37   1.87340
   6   3   2  4  1  o       2922.4773     2910.0410    1.27   1.87308
   0   5   5  4  1  o          0.0000      972.2118    1.35   1.87710
   4   6   0  4  1  o          0.0000     2240.5347  176.33   1.87702
   3   1   6  4  1  o          0.0000     8045.3501  184.87   1.87631
   5   5   1  4  1  o       1917.4696     1901.0535  185.20   1.87163
   0   7   2  4  1  o         25.8529       25.3460  145.17   1.86962
   2   7   0  4  1  o          0.0000    31230.5352    3.75   1.87353
   7   1   0  4  1  o          0.0000      469.3391  174.37   1.87340
  -1   5   5  4  1  o       2593.5020     2525.0442  182.78   1.86858
   6   3   2  4  1  o          0.0000     2910.0410    1.27   1.87308
   4   5   3  4  1  o        986.0010      957.6821   13.92   1.86824
  -6   0   4  2  1  o      65944.8438    64015.2422  185.24   1.86816
  -7   1   1  4  1  o       1238.6263     1201.1167  179.41   1.86801
   5   5   1  4  1  o          0.0000     1901.0535  185.20   1.87163
  -4   6   1  4  1  o       1743.5924     1661.3766  178.09   1.86551
   0   7   2  4  1  o          0.0000       25.3460  145.17   1.86962
  -1   5   5  4  1  o          0.0000     2525.0442  182.78   1.86858
   4   5   3  4  1  o          0.0000      957.6821   13.92   1.86824
  -6   0   4  2  1  o          0.0000    64015.2422  185.24   1.86816
  -7   1   1  4  1  o          0.0000     1201.1167  179.41   1.86801
   3   5   4  4  1  o       4355.9551     4090.3855    6.33   1.86147
   0   6   4  4  1  o       9340.5615     8771.2080    7.81   1.86144
  -4   6   1  4  1  o          0.0000     1661.3766  178.09   1.86551
  -2   7   1  4  1  o       6078.1714     5771.2231   11.37   1.85807
   3   5   4  4  1  o          0.0000     4090.3855    6.33   1.86147
   0   6   4  4  1  o          0.0000     8771.2080    7.81   1.86144
  -1   7   2  4  1  o       2190.8176     2121.4885    0.35   1.85521
   6   4   0  4  1  o       4827.7397     4728.9771  359.62   1.85382
  -2   7   1  4  1  o          0.0000     5771.2231   11.37   1.85807
   5   4   3  4  1  o       6212.4351     6170.6206    3.42   1.85188
  -1   6   4  4  1  o       3933.1262     3919.5676    2.97   1.85116
  -6   1   4  4  1  o         15.8889       15.8440  353.91   1.85097
  -1   7   2  4  1  o          0.0000     2121.4885    0.35   1.85521
   6   2   3  4  1  o       1482.6034     1480.1260  195.39   1.85045
   2   7   1  4  1  o        870.0906      868.9219  201.08   1.85014
  -3   6   3  4  1  o       5194.7178     5187.0361    0.07   1.84955
   4   6   1  4  1  o       1434.0505     1431.9255    6.13   1.84955
   6   4   0  4  1  o          0.0000     4728.9771  359.62   1.85382
  -4   0   6  2  1  o         52.9786       52.8534  199.63   1.84902
   1   5   5  4  1  o       1163.1858     1159.2003   12.02   1.84860
   1   7   2  4  1  o        769.0432      763.2596    1.81   1.84731
   5   4   3  4  1  o          0.0000     6170.6206    3.42   1.85188
  -6   4   1  4  1  o       4000.7256     3964.4258  195.95   1.84664
  -1   6   4  4  1  o          0.0000     3919.5676    2.97   1.85116
  -6   1   4  4  1  o          0.0000       15.8440  353.91   1.85097
   6   2   3  4  1  o          0.0000     1480.1260  195.39   1.85045
   2   7   1  4  1  o          0.0000      868.9219  201.08   1.85014
  -3   6   3  4  1  o          0.0000     5187.0361    0.07   1.84955
   4   6   1  4  1  o          0.0000     1431.9255    6.13   1.84955
  -4   0   6  2  1  o          0.0000       52.8534  199.63   1.84902
   1   5   5  4  1  o          0.0000     1159.2003   12.02   1.84860
  -5   5   2  4  1  o       1866.3943     1870.7091  350.53   1.84383
   1   7   2  4  1  o          0.0000      763.2596    1.81   1.84731
   2   3   6  4  1  o        437.4089      446.1561  349.30   1.84249
  -6   4   1  4  1  o          0.0000     3964.4258  195.95   1.84664
  -7   0   2  2  1  o        605.1089      626.2518  203.16   1.84152
   7   1   1  4  1  o       2066.3818     2172.2222  169.31   1.84024
  -5   5   2  4  1  o          0.0000     1870.7091  350.53   1.84383
   2   3   6  4  1  o          0.0000      446.1561  349.30   1.84249
  -7   0   2  2  1  o          0.0000      626.2518  203.16   1.84152
   3   4   5  4  1  o         77.6551       80.7819  335.21   1.83691
  -6   3   3  4  1  o      11598.4922    12060.1367    3.13   1.83688
   7   1   1  4  1  o          0.0000     2172.2222  169.31   1.84024
   1   6   4  4  1  o       1801.0420     1834.7217  184.04   1.83556
   3   4   5  4  1  o          0.0000       80.7819  335.21   1.83691
  -4   1   6  4  1  o        537.6658      524.4199   10.60   1.83234
  -6   3   3  4  1  o          0.0000    12060.1367    3.13   1.83688
   1   6   4  4  1  o          0.0000     1834.7217  184.04   1.83556
  -5   2   5  4  1  o       1058.1229     1028.8951  183.67   1.83010
   5   3   4  4  1  o         42.8270       42.5259  192.50   1.82790
  -4   1   6  4  1  o          0.0000      524.4199   10.60   1.83234
   0   1   7  4  1  o        392.1418      392.5844   10.35   1.82713
  -5   2   5  4  1  o          0.0000     1028.8951  183.67   1.83010
   3   2   6  4  1  o       2318.7847     2338.7883  357.80   1.82546
  -7   1   2  4  1  o         53.6303       54.0112  232.49   1.82504
  -2   5   5  4  1  o        410.1404      411.3872  196.13   1.82451
   6   4   1  4  1  o          8.8052        8.7236  322.87   1.82356
   5   3   4  4  1  o          0.0000       42.5259  192.50   1.82790
  -1   1   7  4  1  o         14.3349       14.0780  341.64   1.82304
   7   2   0  4  1  o       3471.1887     3393.6531  187.53   1.82278
   0   1   7  4  1  o          0.0000      392.5844   10.35   1.82713
   3   2   6  4  1  o          0.0000     2338.7883  357.80   1.82546
   0   4   6  4  1  o       3916.2808     3697.5696  183.50   1.82054
  -7   1   2  4  1  o          0.0000       54.0112  232.49   1.82504
  -2   5   5  4  1  o          0.0000      411.3872  196.13   1.82451
   4   3   5  4  1  o        328.6985      308.7278    1.42   1.81976
   6   4   1  4  1  o          0.0000        8.7236  322.87   1.82356
  -1   1   7  4  1  o          0.0000       14.0780  341.64   1.82304
   7   2   0  4  1  o          0.0000     3393.6531  187.53   1.82278
  -7   2   1  4  1  o       1634.0906     1549.2661  185.72   1.81782
  -4   6   2  4  1  o       4860.9004     4658.7627  183.16   1.81708
   0   4   6  4  1  o          0.0000     3697.5696  183.50   1.82054
   4   3   5  4  1  o          0.0000      308.7278    1.42   1.81976
   3   6   3  4  1  o      18503.9297    18416.6934  184.09   1.81509
  -1   4   6  4  1  o       1581.4302     1587.9979    1.27   1.81462
  -7   2   1  4  1  o          0.0000     1549.2661  185.72   1.81782
  -4   6   2  4  1  o          0.0000     4658.7627  183.16   1.81708
  -3   3   6  4  1  o      14708.2139    15236.4365  188.97   1.81242
   3   6   3  4  1  o          0.0000    18416.6934  184.09   1.81509
  -1   4   6  4  1  o          0.0000     1587.9979    1.27   1.81462
  -3   3   6  4  1  o          0.0000    15236.4365  188.97   1.81242
  -2   7   2  4  1  o       3643.0554     3874.9346  182.74   1.80652
  -2   6   4  4  1  o      20905.2598    22241.9160  185.00   1.80644
   5   5   2  4  1  o        595.1781      634.0369  191.48   1.80601
  -6   4   2  4  1  o        131.3555      140.7360    7.23   1.80326
  -6   2   4  4  1  o       4028.4272     4344.8188  189.41   1.80210
  -2   7   2  4  1  o          0.0000     3874.9346  182.74   1.80652
  -2   6   4  4  1  o          0.0000    22241.9160  185.00   1.80644
   5   5   2  4  1  o          0.0000      634.0369  191.48   1.80601
  -6   4   2  4  1  o          0.0000      140.7360    7.23   1.80326
  -6   2   4  4  1  o          0.0000     4344.8188  189.41   1.80210
   1   1   7  4  1  o       1635.9370     2039.2207  174.65   1.79719
  -4   5   4  4  1  o        155.4615      186.2736  248.94   1.79286
   1   1   7  4  1  o          0.0000     2039.2207  174.65   1.79719
   1   4   6  4  1  o        132.9154      158.1093  169.77   1.79271
   7   2   1  4  1  o       6572.3545     7625.5879    9.79   1.79219
   2   7   2  4  1  o       5115.2231     5884.2275    1.73   1.79202
  -5   4   4  4  1  o        147.3233      159.6557  175.51   1.79077
   7   0   2  2  1  o        167.7942      171.7012  139.69   1.78939
  -4   5   4  4  1  o          0.0000      186.2736  248.94   1.79286
   1   4   6  4  1  o          0.0000      158.1093  169.77   1.79271
   4   6   2  4  1  o        194.3622      190.0985   19.54   1.78792
   2   5   5  4  1  o        684.3588      668.0754    7.25   1.78784
   7   2   1  4  1  o          0.0000     7625.5879    9.79   1.79219
   2   7   2  4  1  o          0.0000     5884.2275    1.73   1.79202
  -5   4   4  4  1  o          0.0000      159.6557  175.51   1.79077
   3   7   0  4  1  o        356.5434      339.3226    0.37   1.78623
  -2   1   7  4  1  o       1674.8397     1588.0374    7.23   1.78557
   5   1   5  4  1  o       1728.6381     1639.0063  182.76   1.78556
   7   0   2  2  1  o          0.0000      171.7012  139.69   1.78939
  -4   2   6  4  1  o        387.0793      366.7879    1.01   1.78489
   4   6   2  4  1  o          0.0000      190.0985   19.54   1.78792
   2   5   5  4  1  o          0.0000      668.0754    7.25   1.78784
  -4   4   5  4  1  o        360.9464      343.7940  192.85   1.78312
   3   7   0  4  1  o          0.0000      339.3226    0.37   1.78623
  -2   1   7  4  1  o          0.0000     1588.0374    7.23   1.78557
   5   1   5  4  1  o          0.0000     1639.0063  182.76   1.78556
  -4   2   6  4  1  o          0.0000      366.7879    1.01   1.78489
   0   2   7  4  1  o        446.6229      418.9561   26.59   1.78008
  -4   4   5  4  1  o          0.0000      343.7940  192.85   1.78312
   0   7   3  4  1  o       8132.8311     7492.1421    3.41   1.77863
  -7   2   2  4  1  o       6382.5127     5849.1997  187.04   1.77814
   2   6   4  4  1  o       1607.8196     1468.5826  185.73   1.77778
   6   0   4  2  1  o        154.1982      140.8322  318.53   1.77777
  -1   2   7  4  1  o       2865.3877     2602.0383  359.88   1.77629
  -2   4   6  4  1  o       3349.7585     3043.7686  181.84   1.77592
   0   2   7  4  1  o          0.0000      418.9561   26.59   1.78008
  -3   7   1  4  1  o       5757.9058     5276.4380    8.53   1.77456
   7   1   2  4  1  o      14350.4863    13187.2871  184.36   1.77426
   0   7   3  4  1  o          0.0000     7492.1421    3.41   1.77863
  -7   2   2  4  1  o          0.0000     5849.1997  187.04   1.77814
   2   6   4  4  1  o          0.0000     1468.5826  185.73   1.77778
   6   0   4  2  1  o          0.0000      140.8322  318.53   1.77777
  -1   2   7  4  1  o          0.0000     2602.0383  359.88   1.77629
  -2   4   6  4  1  o          0.0000     3043.7686  181.84   1.77592
   6   3   3  4  1  o       5261.0156     4989.0425  184.57   1.77114
  -3   7   1  4  1  o          0.0000     5276.4380    8.53   1.77456
   7   1   2  4  1  o          0.0000    13187.2871  184.36   1.77426
  -1   7   3  4  1  o        442.7488      420.5464   15.06   1.76793
   6   3   3  4  1  o          0.0000     4989.0425  184.57   1.77114
  -5   5   3  4  1  o       3974.5474     3718.8608    6.00   1.76487
   3   7   1  4  1  o      16293.3594    15202.3906    7.83   1.76421
  -1   7   3  4  1  o          0.0000      420.5464   15.06   1.76793
   6   1   4  4  1  o       1439.7567     1336.2593  179.54   1.76293
   4   0   6  2  1  o      17697.8535    16303.6738    3.36   1.76124
   6   4   2  4  1  o        421.2545      387.6585  356.49   1.76099
  -5   5   3  4  1  o          0.0000     3718.8608    6.00   1.76487
   3   7   1  4  1  o          0.0000    15202.3906    7.83   1.76421
   6   1   4  4  1  o          0.0000     1336.2593  179.54   1.76293
   1   7   3  4  1  o        198.3257      181.9816   36.75   1.75770
   4   0   6  2  1  o          0.0000    16303.6738    3.36   1.76124
   6   4   2  4  1  o          0.0000      387.6585  356.49   1.76099
   1   7   3  4  1  o          0.0000      181.9816   36.75   1.75770
  -5   3   5  4  1  o         66.7894       62.6550  180.97   1.75327
   1   2   7  4  1  o       1281.9288     1207.6781    8.79   1.75236
  -3   5   5  4  1  o        752.1345      710.4825  188.34   1.75190
  -7   1   3  4  1  o        217.5498      205.7684  350.05   1.75171
   3   3   6  4  1  o       7452.7422     7252.1802  190.17   1.74919
  -5   3   5  4  1  o          0.0000       62.6550  180.97   1.75327
   1   2   7  4  1  o          0.0000     1207.6781    8.79   1.75236
  -3   5   5  4  1  o          0.0000      710.4825  188.34   1.75190
  -7   1   3  4  1  o          0.0000      205.7684  350.05   1.75171
   7   3   0  4  1  o       5100.4209     5099.6577    5.64   1.74683
   4   1   6  4  1  o       4713.6694     4713.5112    3.80   1.74681
   3   3   6  4  1  o          0.0000     7252.1802  190.17   1.74919
   7   3   0  4  1  o          0.0000     5099.6577    5.64   1.74683
   4   1   6  4  1  o          0.0000     4713.5112    3.80   1.74681
  -7   3   1  4  1  o         76.4224       76.4494   19.83   1.74246
  -2   2   7  4  1  o       2781.1433     2795.3337  192.05   1.74158
   5   2   5  4  1  o       8316.8574     8359.7383    8.38   1.74157
  -4   6   3  4  1  o       1268.8461     1294.8784  178.88   1.73973
  -7   3   1  4  1  o          0.0000       76.4494   19.83   1.74246
   4   5   4  4  1  o       2528.4749     2593.3640   10.22   1.73808
   2   1   7  4  1  o       8483.5508     8698.0928  188.95   1.73793
  -2   2   7  4  1  o          0.0000     2795.3337  192.05   1.74158
   5   2   5  4  1  o          0.0000     8359.7383    8.38   1.74157
   2   4   6  4  1  o         81.6484       82.0337  171.39   1.73550
  -4   6   3  4  1  o          0.0000     1294.8784  178.88   1.73973
  -3   6   4  4  1  o        866.1888      859.6179    3.18   1.73426
   4   5   4  4  1  o          0.0000     2593.3640   10.22   1.73808
   2   1   7  4  1  o          0.0000     8698.0928  188.95   1.73793
   2   4   6  4  1  o          0.0000       82.0337  171.39   1.73550
  -3   7   2  4  1  o       2181.1526     2136.3271  180.99   1.73110
   7   2   2  4  1  o      11524.9473    11288.1416    4.65   1.73108
  -6   4   3  4  1  o       2545.8315     2494.0254  186.48   1.73081
  -3   6   4  4  1  o          0.0000      859.6179    3.18   1.73426
  -6   3   4  4  1  o         53.9306       53.4398  140.20   1.72860
   5   6   0  4  1  o       6573.2910     6613.9277  184.92   1.72726
  -2   7   3  4  1  o      14021.8809    14112.5469    4.87   1.72724
  -3   7   2  4  1  o          0.0000     2136.3271  180.99   1.73110
   7   2   2  4  1  o          0.0000    11288.1416    4.65   1.73108
  -6   4   3  4  1  o          0.0000     2494.0254  186.48   1.73081
  -6   3   4  4  1  o          0.0000       53.4398  140.20   1.72860
   5   4   4  4  1  o        858.3676      898.1962  358.90   1.72329
   5   6   0  4  1  o          0.0000     6613.9277  184.92   1.72726
  -2   7   3  4  1  o          0.0000    14112.5469    4.87   1.72724
   6   2   4  4  1  o      12980.7969    13561.6475  184.91   1.72055
  -3   1   7  4  1  o       1626.8861     1699.4866  349.76   1.72050
  -5   6   1  4  1  o       4526.7515     4721.0972    5.65   1.71986
   7   3   1  4  1  o       2052.8230     2140.9158    3.71   1.71985
   5   4   4  4  1  o          0.0000      898.1962  358.90   1.72329
   6   5   0  4  1  o         21.1477       21.9120  147.57   1.71722
   4   4   5  4  1  o       2690.5227     2780.6550  185.27   1.71646
   6   2   4  4  1  o          0.0000    13561.6475  184.91   1.72055
  -3   1   7  4  1  o          0.0000     1699.4866  349.76   1.72050
   5   5   3  4  1  o        242.5891      249.8405    6.89   1.71568
  -5   6   1  4  1  o          0.0000     4721.0972    5.65   1.71986
   7   3   1  4  1  o          0.0000     2140.9158    3.71   1.71985
  -5   0   6  2  1  o        310.4455      317.9046  202.70   1.71470
  -4   3   6  4  1  o       5180.3188     5254.9336    4.95   1.71340
   6   5   0  4  1  o          0.0000       21.9120  147.57   1.71722
   4   4   5  4  1  o          0.0000     2780.6550  185.27   1.71646
   3   7   2  4  1  o      10373.8613    10418.4727  180.43   1.71204
  -6   5   1  4  1  o        969.9346      970.8361  177.15   1.71151
   5   5   3  4  1  o          0.0000      249.8405    6.89   1.71568
  -5   0   6  2  1  o          0.0000      317.9046  202.70   1.71470
  -3   4   6  4  1  o       3332.5044     3318.1040  181.90   1.71031
  -7   2   3  4  1  o      53999.0469    53739.7734    4.19   1.71012
  -6   1   5  4  1  o        919.8750      914.6614  167.07   1.70952
   0   8   0  2  1  o      12817.2031    12743.9580  355.44   1.70923
  -4   3   6  4  1  o          0.0000     5254.9336    4.95   1.71340
   0   3   7  4  1  o       5652.2119     5620.1069    3.54   1.70914
   0   6   5  4  1  o       9403.8496     9362.0801    4.99   1.70837
   2   7   3  4  1  o      18617.7812    18537.9824  187.15   1.70831
   3   7   2  4  1  o          0.0000    10418.4727  180.43   1.71204
  -7   3   2  4  1  o       9143.6885     9137.0127  185.69   1.70743
  -6   5   1  4  1  o          0.0000      970.8361  177.15   1.71151
  -3   4   6  4  1  o          0.0000     3318.1040  181.90   1.71031
  -7   2   3  4  1  o          0.0000    53739.7734    4.19   1.71012
  -1   3   7  4  1  o        139.9315      141.4492  182.46   1.70578
   4   2   6  4  1  o         56.2377       56.9601   33.67   1.70556
  -6   1   5  4  1  o          0.0000      914.6614  167.07   1.70952
   0   8   0  2  1  o          0.0000    12743.9580  355.44   1.70923
   0   3   7  4  1  o          0.0000     5620.1069    3.54   1.70914
   5   6   1  4  1  o       1026.0387     1052.3962  198.91   1.70424
   0   6   5  4  1  o          0.0000     9362.0801    4.99   1.70837
   2   7   3  4  1  o          0.0000    18537.9824  187.15   1.70831
   3   5   5  4  1  o       2621.0640     2700.9717  186.47   1.70376
  -7   3   2  4  1  o          0.0000     9137.0127  185.69   1.70743
  -1   6   5  4  1  o        530.0316      553.0779   23.27   1.70194
   4   6   3  4  1  o         51.1861       53.4468  155.89   1.70168
  -1   3   7  4  1  o          0.0000      141.4492  182.46   1.70578
  -5   1   6  4  1  o       3276.4507     3422.1082    8.55   1.70138
   4   2   6  4  1  o          0.0000       56.9601   33.67   1.70556
   5   6   1  4  1  o          0.0000     1052.3962  198.91   1.70424
   3   5   5  4  1  o          0.0000     2700.9717  186.47   1.70376
  -1   6   5  4  1  o          0.0000      553.0779   23.27   1.70194
   4   6   3  4  1  o          0.0000       53.4468  155.89   1.70168
   2   2   7  4  1  o      10305.2100    10251.2432    2.82   1.69729
  -5   1   6  4  1  o          0.0000     3422.1082    8.55   1.70138
   3   6   4  4  1  o       6271.7676     6162.0591  183.92   1.69656
   1   8   0  4  1  o       3638.3826     3521.1384    2.99   1.69516
   0   8   1  4  1  o       6816.6279     6591.4312    4.94   1.69444
   6   5   1  4  1  o        116.0159      113.7781  198.59   1.69308
   2   2   7  4  1  o          0.0000    10251.2432    2.82   1.69729
   3   6   4  4  1  o          0.0000     6162.0591  183.92   1.69656
   1   8   0  4  1  o          0.0000     3521.1384    2.99   1.69516
   0   5   6  4  1  o       4122.0078     4326.6812    2.51   1.69067
   0   8   1  4  1  o          0.0000     6591.4312    4.94   1.69444
   6   5   1  4  1  o          0.0000      113.7781  198.59   1.69308
   1   6   5  4  1  o         77.2292       86.3117  222.49   1.68680
   0   5   6  4  1  o          0.0000     4326.6812    2.51   1.69067
  -1   5   6  4  1  o       2917.8977     3209.9500    2.22   1.68593
   7   1   3  4  1  o       6441.5913     6998.3198    1.08   1.68541
   1   3   7  4  1  o       1082.4891     1150.4020   11.42   1.68456
  -5   6   2  4  1  o        653.5721      673.4656  189.84   1.68317
   1   6   5  4  1  o          0.0000       86.3117  222.49   1.68680
   4   7   0  4  1  o       7779.3530     7911.6387  184.17   1.68225
  -1   8   1  4  1  o        501.6701      509.9374  175.25   1.68220
  -1   5   6  4  1  o          0.0000     3209.9500    2.22   1.68593
   7   1   3  4  1  o          0.0000     6998.3198    1.08   1.68541
  -3   2   7  4  1  o       5625.4937     5671.2861    4.52   1.68105
   1   3   7  4  1  o          0.0000     1150.4020   11.42   1.68456
   1   8   1  4  1  o       1203.7197     1205.8600  182.78   1.67925
  -5   6   2  4  1  o          0.0000      673.4656  189.84   1.68317
   4   7   0  4  1  o          0.0000     7911.6387  184.17   1.68225
  -1   8   1  4  1  o          0.0000      509.9374  175.25   1.68220
  -3   2   7  4  1  o          0.0000     5671.2861    4.52   1.68105
  -6   5   2  4  1  o       1888.2961     1847.9692    5.53   1.67680
   6   4   3  4  1  o       7776.7427     7468.7388  190.38   1.67548
   1   8   1  4  1  o          0.0000     1205.8600  182.78   1.67925
  -2   3   7  4  1  o       6647.9546     6342.1753    3.31   1.67497
   5   3   5  4  1  o        184.4029      175.9070  354.90   1.67497
  -4   7   1  4  1  o      13006.9521    12280.6807  188.51   1.67395
  -6   5   2  4  1  o          0.0000     1847.9692    5.53   1.67680
   6   4   3  4  1  o          0.0000     7468.7388  190.38   1.67548
   0   7   4  4  1  o       9291.4092     8781.6445    3.36   1.67101
  -2   3   7  4  1  o          0.0000     6342.1753    3.31   1.67497
  -7   0   4  2  1  o       3607.7144     3414.5798    8.73   1.67081
   5   3   5  4  1  o          0.0000      175.9070  354.90   1.67497
  -6   2   5  4  1  o       5367.0308     5080.5640    9.04   1.67079
  -4   7   1  4  1  o          0.0000    12280.6807  188.51   1.67395
  -2   6   5  4  1  o       1261.3042     1217.7734  191.73   1.66844
   1   5   6  4  1  o       7542.3193     7288.7944    7.14   1.66831
   0   7   4  4  1  o          0.0000     8781.6445    3.36   1.67101
  -5   5   4  4  1  o        407.1874      396.8132  168.67   1.66675
  -7   0   4  2  1  o          0.0000     3414.5798    8.73   1.67081
  -6   2   5  4  1  o          0.0000     5080.5640    9.04   1.67079
   7   3   2  4  1  o      23277.0840    22747.5586  184.86   1.66563
  -2   6   5  4  1  o          0.0000     1217.7734  191.73   1.66844
   1   5   6  4  1  o          0.0000     7288.7944    7.14   1.66831
  -1   7   4  4  1  o        574.3549      563.1356  354.72   1.66356
  -5   2   6  4  1  o         23.4910       23.0542  253.59   1.66319
  -5   5   4  4  1  o          0.0000      396.8132  168.67   1.66675
  -3   7   3  4  1  o       9215.2988     9070.1621  190.03   1.66239
   4   7   1  4  1  o       1839.1334     1810.1860    7.92   1.66239
   7   3   2  4  1  o          0.0000    22747.5586  184.86   1.66563
  -4   5   5  4  1  o       3673.4731     3646.7913    5.67   1.66057
  -5   4   5  4  1  o       2822.6399     2804.6482  358.96   1.66033
  -1   7   4  4  1  o          0.0000      563.1356  354.72   1.66356
  -5   2   6  4  1  o          0.0000       23.0542  253.59   1.66319
  -7   1   4  4  1  o       2161.6375     2146.8721    5.36   1.65848
  -3   7   3  4  1  o          0.0000     9070.1621  190.03   1.66239
   4   7   1  4  1  o          0.0000     1810.1860    7.92   1.66239
   3   1   7  4  1  o        536.2226      529.2653  353.87   1.65756
   3   4   6  4  1  o       3730.7568     3657.9338  182.33   1.65686
  -4   5   5  4  1  o          0.0000     3646.7913    5.67   1.66057
   6   3   4  4  1  o        383.7433      373.7988  179.15   1.65624
  -5   4   5  4  1  o          0.0000     2804.6482  358.96   1.66033
   2   8   0  4  1  o      10088.3496     9701.9980    5.30   1.65495
   7   4   0  4  1  o        233.4544      224.3478  181.38   1.65486
   8   0   0  2  1  o      16924.9062    16260.7666    1.48   1.65483
  -2   5   6  4  1  o        178.2427      171.1323  174.01   1.65475
  -7   1   4  4  1  o          0.0000     2146.8721    5.36   1.65848
   5   6   2  4  1  o        135.7702      129.8807   34.90   1.65425
   3   1   7  4  1  o          0.0000      529.2653  353.87   1.65756
   3   4   6  4  1  o          0.0000     3657.9338  182.33   1.65686
   0   8   2  4  1  o       3296.4092     3131.1042  181.84   1.65225
   1   7   4  4  1  o       1231.5966     1169.8131    5.53   1.65221
   6   3   4  4  1  o          0.0000      373.7988  179.15   1.65624
  -7   4   1  4  1  o          0.7833        0.7451  243.68   1.65114
   2   8   0  4  1  o          0.0000     9701.9980    5.30   1.65495
   7   4   0  4  1  o          0.0000      224.3478  181.38   1.65486
   8   0   0  2  1  o          0.0000    16260.7666    1.48   1.65483
  -2   5   6  4  1  o          0.0000      171.1323  174.01   1.65475
   5   6   2  4  1  o          0.0000      129.8807   34.90   1.65425
   7   2   3  4  1  o      12518.9814    12275.9014  184.06   1.64827
   0   8   2  4  1  o          0.0000     3131.1042  181.84   1.65225
   1   7   4  4  1  o          0.0000     1169.8131    5.53   1.65221
  -7   4   1  4  1  o          0.0000        0.7451  243.68   1.65114
  -7   3   3  4  1  o       1903.0629     1917.4187  185.06   1.64693
  -2   8   1  4  1  o       1677.8621     1773.9196    1.34   1.64427
   7   2   3  4  1  o          0.0000    12275.9014  184.06   1.64827
  -4   6   4  4  1  o        499.7697      529.0795    1.13   1.64413
   4   3   6  4  1  o      11865.3730    12630.8721    3.87   1.64286
  -7   3   3  4  1  o          0.0000     1917.4187  185.06   1.64693
   8   1   0  4  1  o       1951.9086     2077.8250    3.98   1.64284
   6   5   2  4  1  o         20.5960       21.9202  190.91   1.64266
  -1   8   2  4  1  o       6480.4956     6889.7749   10.24   1.64228
  -8   1   1  4  1  o       3123.7019     3277.5630  190.01   1.64058
   2   6   5  4  1  o        161.1004      168.4212  174.87   1.64025
  -2   8   1  4  1  o          0.0000     1773.9196    1.34   1.64427
  -4   6   4  4  1  o          0.0000      529.0795    1.13   1.64413
  -6   4   4  4  1  o        535.3440      553.1501   13.49   1.63934
   4   3   6  4  1  o          0.0000    12630.8721    3.87   1.64286
   8   1   0  4  1  o          0.0000     2077.8250    3.98   1.64284
   2   8   1  4  1  o       4276.6914     4381.9761  358.48   1.63876
  -4   7   2  4  1  o       1116.3682     1142.6606  185.75   1.63869
   6   5   2  4  1  o          0.0000       21.9202  190.91   1.64266
  -1   8   2  4  1  o          0.0000     6889.7749   10.24   1.64228
   3   7   3  4  1  o       1547.9280     1545.8314  191.79   1.63724
   1   8   2  4  1  o       8844.8809     8761.2070  187.71   1.63680
  -8   1   1  4  1  o          0.0000     3277.5630  190.01   1.64058
  -4   1   7  4  1  o       1193.1652     1174.8663  188.56   1.63648
   2   6   5  4  1  o          0.0000      168.4212  174.87   1.64025
   2   3   7  4  1  o       3629.7925     3507.6311  185.88   1.63546
  -6   4   4  4  1  o          0.0000      553.1501   13.49   1.63934
   2   8   1  4  1  o          0.0000     4381.9761  358.48   1.63876
  -4   7   2  4  1  o          0.0000     1142.6606  185.75   1.63869
   3   7   3  4  1  o          0.0000     1545.8314  191.79   1.63724
   1   8   2  4  1  o          0.0000     8761.2070  187.71   1.63680
  -4   1   7  4  1  o          0.0000     1174.8663  188.56   1.63648
   7   4   1  4  1  o      15672.1904    14524.3633    7.44   1.63187
   2   3   7  4  1  o          0.0000     3507.6311  185.88   1.63546
  -2   7   4  4  1  o      10340.8262     9579.5010    3.85   1.63087
   7   4   1  4  1  o          0.0000    14524.3633    7.44   1.63187
   5   0   6  2  1  o       7443.6455     6993.9302    9.33   1.62766
  -2   7   4  4  1  o          0.0000     9579.5010    3.85   1.63087
  -4   4   6  4  1  o        626.9591      589.7170    9.11   1.62635
  -8   0   2  2  1  o       1687.1241     1573.7993   10.07   1.62387
   5   0   6  2  1  o          0.0000     6993.9302    9.33   1.62766
   6   1   5  4  1  o          3.8489        3.5845  205.43   1.62322
  -7   2   4  4  1  o       3411.7026     3176.6602    7.28   1.62305
   0   4   7  4  1  o       3816.2473     3552.8472   10.96   1.62271
  -5   6   3  4  1  o       8247.6113     7679.7412  186.43   1.62247
  -4   4   6  4  1  o          0.0000      589.7170    9.11   1.62635
   3   2   7  4  1  o      35267.4453    32855.6953  182.54   1.62219
   2   5   6  4  1  o        681.6180      635.5420  192.65   1.62191
  -7   4   2  4  1  o        333.3857      311.8765  356.51   1.62124
  -3   3   7  4  1  o      12202.2891    11440.7363  184.37   1.62092
  -8   0   2  2  1  o          0.0000     1573.7993   10.07   1.62387
  -1   4   7  4  1  o      28918.1973    27370.6973  185.30   1.61984
   6   1   5  4  1  o          0.0000        3.5845  205.43   1.62322
  -7   2   4  4  1  o          0.0000     3176.6602    7.28   1.62305
   8   1   1  4  1  o       3881.2981     3701.5076  182.23   1.61902
   0   4   7  4  1  o          0.0000     3552.8472   10.96   1.62271
  -5   6   3  4  1  o          0.0000     7679.7412  186.43   1.62247
   3   2   7  4  1  o          0.0000    32855.6953  182.54   1.62219
  -6   5   3  4  1  o         36.9906       35.5099  156.17   1.61808
   2   5   6  4  1  o          0.0000      635.5420  192.65   1.62191
  -7   4   2  4  1  o          0.0000      311.8765  356.51   1.62124
   4   7   2  4  1  o         17.5033       16.8344  314.55   1.61721
  -3   3   7  4  1  o          0.0000    11440.7363  184.37   1.62092
   5   1   6  4  1  o        197.5756      189.3510  191.72   1.61625
  -1   4   7  4  1  o          0.0000    27370.6973  185.30   1.61984
   8   1   1  4  1  o          0.0000     3701.5076  182.23   1.61902
  -6   5   3  4  1  o          0.0000       35.5099  156.17   1.61808
   0   0   8  2  1  o      25508.9648    23811.1074    6.09   1.61321
   4   7   2  4  1  o          0.0000       16.8344  314.55   1.61721
  -8   1   2  4  1  o        127.5466      118.9372   18.19   1.61254
  -3   6   5  4  1  o        952.1940      888.2080  358.99   1.61237
   5   1   6  4  1  o          0.0000      189.3510  191.72   1.61625
   5   5   4  4  1  o         94.7841       88.5895  357.50   1.61193
  -6   3   5  4  1  o        204.1288      191.0799    4.77   1.61172
  -1   0   8  2  1  o       1580.9563     1480.2584  182.77   1.61169
   2   7   4  4  1  o       3658.5625     3536.0352  187.44   1.60969
   0   0   8  2  1  o          0.0000    23811.1074    6.09   1.61321
  -8   1   2  4  1  o          0.0000      118.9372   18.19   1.61254
   8   2   0  4  1  o       4217.2925     4204.0249  184.41   1.60839
  -3   6   5  4  1  o          0.0000      888.2080  358.99   1.61237
  -2   8   2  4  1  o        360.2451      360.5954  185.82   1.60822
   5   5   4  4  1  o          0.0000       88.5895  357.50   1.61193
  -6   3   5  4  1  o          0.0000      191.0799    4.77   1.61172
  -1   0   8  2  1  o          0.0000     1480.2584  182.77   1.61169
   4   5   5  4  1  o         84.9836       88.6144  342.54   1.60634
  -8   2   1  4  1  o        173.0966      180.7241   28.11   1.60626
   2   7   4  4  1  o          0.0000     3536.0352  187.44   1.60969
  -5   3   6  4  1  o      17262.0195    18378.1582    6.96   1.60489
   8   2   0  4  1  o          0.0000     4204.0249  184.41   1.60839
  -2   8   2  4  1  o          0.0000      360.5954  185.82   1.60822
  -4   2   7  4  1  o         75.7784       82.9829  174.13   1.60241
   4   5   5  4  1  o          0.0000       88.6144  342.54   1.60634
  -8   2   1  4  1  o          0.0000      180.7241   28.11   1.60626
   0   1   8  4  1  o        413.3982      454.7490  353.62   1.60210
   1   4   7  4  1  o       1508.4708     1671.4624    7.18   1.60163
   4   6   4  4  1  o       2618.5610     2903.8018  188.29   1.60158
  -3   5   6  4  1  o       1240.5109     1382.2008  196.89   1.60129
  -5   3   6  4  1  o          0.0000    18378.1582    6.96   1.60489
  -1   1   8  4  1  o       5418.3579     6103.7910    1.25   1.60061
  -4   2   7  4  1  o          0.0000       82.9829  174.13   1.60241
   0   1   8  4  1  o          0.0000      454.7490  353.62   1.60210
   2   8   2  4  1  o        192.5364      219.7232    6.87   1.59796
   1   4   7  4  1  o          0.0000     1671.4624    7.18   1.60163
   4   6   4  4  1  o          0.0000     2903.8018  188.29   1.60158
  -3   5   6  4  1  o          0.0000     1382.2008  196.89   1.60129
  -1   1   8  4  1  o          0.0000     6103.7910    1.25   1.60061
   7   0   4  2  1  o       3969.6738     4287.2402    9.42   1.59501
   2   8   2  4  1  o          0.0000      219.7232    6.87   1.59796
   3   8   0  4  1  o        800.0349      846.6198  183.36   1.59385
  -2   4   7  4  1  o        775.2091      815.0307  201.29   1.59338
   5   4   5  4  1  o      13514.2500    14207.4307    8.19   1.59338
   7   3   3  4  1  o       8767.4004     9056.6768  182.62   1.59147
   1   0   8  2  1  o       2296.4878     2368.8118  359.64   1.59123
   7   0   4  2  1  o          0.0000     4287.2402    9.42   1.59501
   6   2   5  4  1  o        747.9405      766.3924    4.63   1.58996
   3   8   0  4  1  o          0.0000      846.6198  183.36   1.59385
  -2   4   7  4  1  o          0.0000      815.0307  201.29   1.59338
   5   4   5  4  1  o          0.0000    14207.4307    8.19   1.59338
   0   8   3  4  1  o         74.1595       75.5781   23.99   1.58844
   7   3   3  4  1  o          0.0000     9056.6768  182.62   1.59147
   1   0   8  2  1  o          0.0000     2368.8118  359.64   1.59123
  -2   0   8  2  1  o      59651.2422    60621.1172  185.09   1.58687
   6   2   5  4  1  o          0.0000      766.3924    4.63   1.58996
   8   2   1  4  1  o       4138.6401     4198.7368  180.34   1.58601
  -3   8   1  4  1  o        826.2546      836.8694  184.62   1.58554
   7   4   2  4  1  o        205.4555      207.8932  358.93   1.58533
   6   6   0  4  1  o       7832.8809     7920.6787  188.43   1.58521
   0   8   3  4  1  o          0.0000       75.5781   23.99   1.58844
   7   1   4  4  1  o       1185.1840     1189.7871  356.77   1.58426
   5   6   3  4  1  o         65.8517       65.9249  160.19   1.58400
   5   2   6  4  1  o       1683.7521     1673.4182   11.38   1.58341
  -2   0   8  2  1  o          0.0000    60621.1172  185.09   1.58687
  -6   0   6  2  1  o        253.0001      249.4305  161.48   1.58284
   8   0   2  2  1  o       3228.5645     3182.6592  357.77   1.58283
   8   2   1  4  1  o          0.0000     4198.7368  180.34   1.58601
  -3   8   1  4  1  o          0.0000      836.8694  184.62   1.58554
   7   4   2  4  1  o          0.0000      207.8932  358.93   1.58533
  -4   7   3  4  1  o      10021.0000     9641.4355  185.04   1.58129
   6   6   0  4  1  o          0.0000     7920.6787  188.43   1.58521
  -1   8   3  4  1  o       6114.6577     5841.8232  182.96   1.58081
  -6   6   1  4  1  o       7356.1387     7018.5176  186.39   1.58071
   1   1   8  4  1  o        260.3199      247.8872  179.95   1.58057
   7   1   4  4  1  o          0.0000     1189.7871  356.77   1.58426
   5   6   3  4  1  o          0.0000       65.9249  160.19   1.58400
  -8   2   2  4  1  o       2279.9617     2154.2847    7.31   1.57992
   5   2   6  4  1  o          0.0000     1673.4182   11.38   1.58341
  -6   0   6  2  1  o          0.0000      249.4305  161.48   1.58284
   8   0   2  2  1  o          0.0000     3182.6592  357.77   1.58283
   3   8   1  4  1  o        203.9119      191.0713  355.88   1.57815
  -4   7   3  4  1  o          0.0000     9641.4355  185.04   1.58129
   6   4   4  4  1  o       3721.5537     3507.3127  183.19   1.57723
  -3   7   4  4  1  o        528.1968      498.1011  181.54   1.57717
  -1   8   3  4  1  o          0.0000     5841.8232  182.96   1.58081
  -6   6   1  4  1  o          0.0000     7018.5176  186.39   1.58071
   1   1   8  4  1  o          0.0000      247.8872  179.95   1.58057
  -2   1   8  4  1  o        591.8282      565.4581  189.25   1.57629
  -8   2   2  4  1  o          0.0000     2154.2847    7.31   1.57992
   3   6   5  4  1  o       1045.8269     1036.5010  188.15   1.57460
   3   8   1  4  1  o          0.0000      191.0713  355.88   1.57815
   1   8   3  4  1  o       2932.5227     2964.1248    4.83   1.57348
   6   4   4  4  1  o          0.0000     3507.3127  183.19   1.57723
  -3   7   4  4  1  o          0.0000      498.1011  181.54   1.57717
   6   5   3  4  1  o         36.7132       37.2641  359.78   1.57260
  -2   1   8  4  1  o          0.0000      565.4581  189.25   1.57629
  -6   1   6  4  1  o        408.2564      413.8875    1.59   1.57234
   8   1   2  4  1  o       3477.0151     3524.7932    5.13   1.57234
   5   7   0  4  1  o       1094.6298     1104.7791    6.96   1.57191
   3   6   5  4  1  o          0.0000     1036.5010  188.15   1.57460
   0   2   8  4  1  o       6572.9722     6372.1367    6.76   1.57009
   1   8   3  4  1  o          0.0000     2964.1248    4.83   1.57348
  -7   4   3  4  1  o       8966.2012     8517.6406    9.72   1.56918
  -7   3   4  4  1  o       4444.3018     4192.7930    3.59   1.56874
   6   5   3  4  1  o          0.0000       37.2641  359.78   1.57260
  -1   2   8  4  1  o       1943.7621     1832.7429    3.94   1.56869
  -6   1   6  4  1  o          0.0000      413.8875    1.59   1.57234
   8   1   2  4  1  o          0.0000     3524.7932    5.13   1.57234
   5   7   0  4  1  o          0.0000     1104.7791    6.96   1.57191
   3   3   7  4  1  o       2103.6401     1974.4391  183.65   1.56796
  -5   7   1  4  1  o        752.4601      721.0056  356.33   1.56632
   0   2   8  4  1  o          0.0000     6372.1367    6.76   1.57009
   6   6   1  4  1  o        124.3509      119.6307  189.86   1.56616
   4   4   6  4  1  o         20.2186       19.7338  184.29   1.56566
  -7   4   3  4  1  o          0.0000     8517.6406    9.72   1.56918
   4   1   7  4  1  o       6200.3442     6172.7231    7.71   1.56505
  -7   3   4  4  1  o          0.0000     4192.7930    3.59   1.56874
  -1   2   8  4  1  o          0.0000     1832.7429    3.94   1.56869
   0   6   6  4  1  o          5.1919        5.3142   16.76   1.56425
   3   3   7  4  1  o          0.0000     1974.4391  183.65   1.56796
  -8   1   3  4  1  o       2376.9023     2577.4460    2.92   1.56248
  -5   7   1  4  1  o          0.0000      721.0056  356.33   1.56632
   6   6   1  4  1  o          0.0000      119.6307  189.86   1.56616
   4   4   6  4  1  o          0.0000       19.7338  184.29   1.56566
   4   1   7  4  1  o          0.0000     6172.7231    7.71   1.56505
  -1   6   6  4  1  o        181.9339      207.6204  210.26   1.56049
   0   6   6  4  1  o          0.0000        5.3142   16.76   1.56425
  -5   5   5  4  1  o       1400.2665     1610.6415    6.68   1.56005
   2   4   7  4  1  o        126.2690      146.4114  179.12   1.55926
  -8   1   3  4  1  o          0.0000     2577.4460    2.92   1.56248
   0   7   5  4  1  o        370.1078      423.7375  191.88   1.55763
   3   5   6  4  1  o        691.8943      784.8749  202.75   1.55717
  -1   6   6  4  1  o          0.0000      207.6204  210.26   1.56049
  -5   5   5  4  1  o          0.0000     1610.6415    6.68   1.56005
  -7   1   5  4  1  o        797.2128      873.1227  358.70   1.55560
   7   5   0  4  1  o        113.6407      124.2446   21.75   1.55551
   8   3   0  4  1  o       1474.2440     1611.0712  172.90   1.55549
   2   4   7  4  1  o          0.0000      146.4114  179.12   1.55926
   5   7   1  4  1  o       1343.0443     1446.7490  354.62   1.55450
  -3   8   2  4  1  o       2885.9478     3103.5139  183.64   1.55431
   0   7   5  4  1  o          0.0000      423.7375  191.88   1.55763
  -8   3   1  4  1  o       8787.7285     9411.9258  184.70   1.55356
   3   5   6  4  1  o          0.0000      784.8749  202.75   1.55717
   7   2   4  4  1  o        490.3737      524.9457   13.34   1.55330
  -6   6   2  4  1  o       3230.6980     3458.3086    7.51   1.55325
  -1   7   5  4  1  o         10.9609       11.7334  165.57   1.55275
   4   7   3  4  1  o       1655.8658     1772.8875   14.26   1.55255
  -7   5   1  4  1  o        306.3567      328.0544    2.28   1.55242
  -7   1   5  4  1  o          0.0000      873.1227  358.70   1.55560
   7   5   0  4  1  o          0.0000      124.2446   21.75   1.55551
   8   3   0  4  1  o          0.0000     1611.0712  172.90   1.55549
  -2   8   3  4  1  o         26.6984       28.6030  227.46   1.55152
   5   7   1  4  1  o          0.0000     1446.7490  354.62   1.55450
  -3   8   2  4  1  o          0.0000     3103.5139  183.64   1.55431
  -4   3   7  4  1  o       6807.5635     7249.8560  183.74   1.55008
   1   2   8  4  1  o         53.9182       57.2904  199.31   1.54981
  -8   3   1  4  1  o          0.0000     9411.9258  184.70   1.55356
   7   2   4  4  1  o          0.0000      524.9457   13.34   1.55330
  -6   6   2  4  1  o          0.0000     3458.3086    7.51   1.55325
  -1   7   5  4  1  o          0.0000       11.7334  165.57   1.55275
   4   7   3  4  1  o          0.0000     1772.8875   14.26   1.55255
   3   7   4  4  1  o       1117.0548     1170.8346  179.12   1.54866
  -7   5   1  4  1  o          0.0000      328.0544    2.28   1.55242
   2   0   8  2  1  o       5830.6104     6097.6743    4.76   1.54850
  -2   8   3  4  1  o          0.0000       28.6030  227.46   1.55152
  -3   4   7  4  1  o       3318.5601     3361.2397    6.52   1.54663
   1   6   6  4  1  o        163.7831      165.4311  151.64   1.54649
  -4   3   7  4  1  o          0.0000     7249.8560  183.74   1.55008
   1   2   8  4  1  o          0.0000       57.2904  199.31   1.54981
  -2   2   8  4  1  o       7791.1021     7755.2861  187.37   1.54578
  -5   6   4  4  1  o        314.3428      309.3656  172.15   1.54525
   3   7   4  4  1  o          0.0000     1170.8346  179.12   1.54866
   2   0   8  2  1  o          0.0000     6097.6743    4.76   1.54850
  -3   4   7  4  1  o          0.0000     3361.2397    6.52   1.54663
   1   6   6  4  1  o          0.0000      165.4311  151.64   1.54649
  -6   5   4  4  1  o       2619.4187     2454.3945    7.21   1.54260
  -5   1   7  4  1  o       1344.5956     1256.4249   19.98   1.54230
  -6   2   6  4  1  o       2740.5310     2556.6182    6.08   1.54206
   8   2   2  4  1  o       3694.6436     3446.5718  184.55   1.54205
  -2   2   8  4  1  o          0.0000     7755.2861  187.37   1.54578
  -3   0   8  2  1  o       2723.9448     2538.5820  180.90   1.54181
  -5   6   4  4  1  o          0.0000      309.3656  172.15   1.54525
   1   7   5  4  1  o       6815.3833     6352.7197    8.50   1.54123
   3   8   2  4  1  o         56.0242       52.5119  345.71   1.54048
  -4   6   5  4  1  o        325.4268      305.5938  356.37   1.54032
   6   3   5  4  1  o        229.5256      221.6228  171.66   1.53880
  -6   5   4  4  1  o          0.0000     2454.3945    7.21   1.54260
   2   1   8  4  1  o         24.7789       23.9937   90.05   1.53867
  -6   4   5  4  1  o       1378.0686     1335.4016   22.05   1.53864
  -5   1   7  4  1  o          0.0000     1256.4249   19.98   1.54230
  -5   7   2  4  1  o        494.6617      481.3029    0.30   1.53846
  -6   2   6  4  1  o          0.0000     2556.6182    6.08   1.54206
   8   2   2  4  1  o          0.0000     3446.5718  184.55   1.54205
  -3   0   8  2  1  o          0.0000     2538.5820  180.90   1.54181
   2   8   3  4  1  o       1912.7085     1890.9210    3.35   1.53776
   1   7   5  4  1  o          0.0000     6352.7197    8.50   1.54123
   3   8   2  4  1  o          0.0000       52.5119  345.71   1.54048
  -4   6   5  4  1  o          0.0000      305.5938  356.37   1.54032
   7   5   1  4  1  o       1593.3308     1617.4882  355.04   1.53637
  -2   6   6  4  1  o       6003.4106     6143.6323    0.76   1.53567
   8   3   1  4  1  o       4640.0176     4760.5557    1.63   1.53522
   4   2   7  4  1  o        936.1930      960.6289  199.32   1.53518
   6   3   5  4  1  o          0.0000      221.6228  171.66   1.53880
   2   1   8  4  1  o          0.0000       23.9937   90.05   1.53867
  -6   4   5  4  1  o          0.0000     1335.4016   22.05   1.53864
  -5   7   2  4  1  o          0.0000      481.3029    0.30   1.53846
   2   8   3  4  1  o          0.0000     1890.9210    3.35   1.53776
   5   3   6  4  1  o       1596.7821     1585.3030  182.58   1.53285
  -8   2   3  4  1  o        454.9179      450.0115  179.70   1.53275
  -5   4   6  4  1  o        129.3443      127.7200  184.16   1.53270
   7   5   1  4  1  o          0.0000     1617.4882  355.04   1.53637
  -3   1   8  4  1  o      10246.9453     9878.7949    2.70   1.53210
  -2   6   6  4  1  o          0.0000     6143.6323    0.76   1.53567
  -4   5   6  4  1  o       5378.0269     5101.5459  179.76   1.53176
   8   3   1  4  1  o          0.0000     4760.5557    1.63   1.53522
   4   2   7  4  1  o          0.0000      960.6289  199.32   1.53518
  -8   3   2  4  1  o        321.6317      268.4401  157.69   1.52969
   5   3   6  4  1  o          0.0000     1585.3030  182.58   1.53285
  -8   2   3  4  1  o          0.0000      450.0115  179.70   1.53275
  -5   4   6  4  1  o          0.0000      127.7200  184.16   1.53270
   0   5   7  4  1  o          5.3812        4.1942  294.53   1.52872
  -3   1   8  4  1  o          0.0000     9878.7949    2.70   1.53210
  -4   5   6  4  1  o          0.0000     5101.5459  179.76   1.53176
  -7   5   2  4  1  o        215.2637      154.6389  187.60   1.52749
  -2   7   5  4  1  o       2724.5735     1921.2360  190.33   1.52718
  -1   5   7  4  1  o        271.6583      183.2857  359.14   1.52631
  -7   2   5  4  1  o          2.6515        1.7842  139.04   1.52625
   6   6   2  4  1  o        300.3184      199.9836  207.94   1.52599
  -8   3   2  4  1  o          0.0000      268.4401  157.69   1.52969
   0   5   7  4  1  o          0.0000        4.1942  294.53   1.52872
  -7   5   2  4  1  o          0.0000      154.6389  187.60   1.52749
  -2   7   5  4  1  o          0.0000     1921.2360  190.33   1.52718
  -1   5   7  4  1  o          0.0000      183.2857  359.14   1.52631
  -7   2   5  4  1  o          0.0000        1.7842  139.04   1.52625
   6   6   2  4  1  o          0.0000      199.9836  207.94   1.52599
   7   4   3  4  1  o       3652.0054     2726.4814    2.26   1.52099
   0   3   8  4  1  o       1357.3635     1029.9326  190.87   1.52077
  -1   3   8  4  1  o        876.7598      726.3484    0.75   1.51949
   4   8   0  4  1  o       5700.7324     4918.7939  179.13   1.51867
   7   4   3  4  1  o          0.0000     2726.4814    2.26   1.52099
   0   3   8  4  1  o          0.0000     1029.9326  190.87   1.52077
   5   7   2  4  1  o        533.0141      467.5481  183.07   1.51628
  -1   3   8  4  1  o          0.0000      726.3484    0.75   1.51949
   4   8   0  4  1  o          0.0000     4918.7939  179.13   1.51867
  -5   2   7  4  1  o       7382.5913     6374.8828  180.48   1.51369
  -4   8   1  4  1  o       3150.2642     2769.8389  186.56   1.51255
   5   7   2  4  1  o          0.0000      467.5481  183.07   1.51628
   1   5   7  4  1  o        380.1375      349.4905  353.34   1.51105
   0   8   4  4  1  o        150.0945      141.4713   57.01   1.51038
   2   2   8  4  1  o        369.5833      350.0626    5.84   1.51025
  -5   2   7  4  1  o          0.0000     6374.8828  180.48   1.51369
   1   9   0  4  1  o         18.5760       18.1887  240.38   1.50941
   2   6   6  4  1  o       1131.4491     1112.0499    4.26   1.50931
   0   9   1  4  1  o       2242.8340     2240.8337    3.65   1.50890
  -4   8   1  4  1  o          0.0000     2769.8389  186.56   1.51255
  -4   7   4  4  1  o       9646.9824     9795.7754  185.20   1.50848
   8   1   3  4  1  o       8477.7686     8624.2725    9.15   1.50843
   1   5   7  4  1  o          0.0000      349.4905  353.34   1.51105
   0   8   4  4  1  o          0.0000      141.4713   57.01   1.51038
   2   2   8  4  1  o          0.0000      350.0626    5.84   1.51025
  -6   6   3  4  1  o         42.2128       46.1440  192.34   1.50623
   1   9   0  4  1  o          0.0000       18.1887  240.38   1.50941
   2   6   6  4  1  o          0.0000     1112.0499    4.26   1.50931
   7   3   4  4  1  o       2528.4465     2812.0315  189.12   1.50549
   2   7   5  4  1  o        386.1524      429.5435   20.48   1.50548
  -8   0   4  2  1  o        520.1558      580.4357  171.74   1.50532
   0   9   1  4  1  o          0.0000     2240.8337    3.65   1.50890
  -1   8   4  4  1  o       2234.8086     2512.0679  182.68   1.50487
  -4   7   4  4  1  o          0.0000     9795.7754  185.20   1.50848
   8   1   3  4  1  o          0.0000     8624.2725    9.15   1.50843
  -2   5   7  4  1  o       2669.2097     3021.9873  182.54   1.50412
   5   5   5  4  1  o        700.9550      793.6160    0.46   1.50412
  -3   2   8  4  1  o        106.0638      120.1256    9.90   1.50404
  -3   8   3  4  1  o        675.7096      765.3840  185.21   1.50401
   4   8   1  4  1  o        131.2336      148.6507  185.45   1.50401
  -6   6   3  4  1  o          0.0000       46.1440  192.34   1.50623
   1   3   8  4  1  o       1190.3705     1330.5953    6.43   1.50232
   7   3   4  4  1  o          0.0000     2812.0315  189.12   1.50549
   2   7   5  4  1  o          0.0000      429.5435   20.48   1.50548
  -8   0   4  2  1  o          0.0000      580.4357  171.74   1.50532
   5   6   4  4  1  o       2867.5056     3128.3530    8.37   1.50126
  -1   8   4  4  1  o          0.0000     2512.0679  182.68   1.50487
  -7   4   4  4  1  o        191.4851      208.0407  179.31   1.50111
   6   0   6  2  1  o       1269.1322     1367.8632  196.40   1.50082
   3   4   7  4  1  o       9202.8271     9811.4092    3.74   1.50043
  -2   5   7  4  1  o          0.0000     3021.9873  182.54   1.50412
   5   5   5  4  1  o          0.0000      793.6160    0.46   1.50412
  -3   2   8  4  1  o          0.0000      120.1256    9.90   1.50404
  -3   8   3  4  1  o          0.0000      765.3840  185.21   1.50401
   4   8   1  4  1  o          0.0000      148.6507  185.45   1.50401
  -1   9   1  4  1  o       8001.7510     8487.9697  183.76   1.50024
  -2   3   8  4  1  o        922.1783      946.0667  193.22   1.49864
   1   3   8  4  1  o          0.0000     1330.5953    6.43   1.50232
   1   9   1  4  1  o       9622.3643     9829.6787  183.02   1.49814
   5   6   4  4  1  o          0.0000     3128.3530    8.37   1.50126
  -7   4   4  4  1  o          0.0000      208.0407  179.31   1.50111
   7   5   2  4  1  o        458.1837      468.5385  352.24   1.49735
   6   0   6  2  1  o          0.0000     1367.8632  196.40   1.50082
   4   6   5  4  1  o       2944.7737     3033.6357  185.82   1.49674
   3   4   7  4  1  o          0.0000     9811.4092    3.74   1.50043
  -1   9   1  4  1  o          0.0000     8487.9697  183.76   1.50024
   1   8   4  4  1  o        267.0542      276.5862  190.89   1.49646
  -8   1   4  4  1  o          4.2401        4.4085   68.86   1.49628
  -6   3   6  4  1  o        866.3664      926.1869  358.48   1.49525
   8   3   2  4  1  o         97.9079      104.6885  114.27   1.49524
  -2   3   8  4  1  o          0.0000      946.0667  193.22   1.49864
   1   9   1  4  1  o          0.0000     9829.6787  183.02   1.49814
   7   5   2  4  1  o          0.0000      468.5385  352.24   1.49735
   4   6   5  4  1  o          0.0000     3033.6357  185.82   1.49674
   1   8   4  4  1  o          0.0000      276.5862  190.89   1.49646
  -3   6   6  4  1  o        668.2660      747.8107   10.57   1.49265
  -8   1   4  4  1  o          0.0000        4.4085   68.86   1.49628
   6   1   6  4  1  o       2919.8123     3234.8784    1.42   1.49186
  -5   7   3  4  1  o         60.1759       66.4416   74.61   1.49169
  -6   3   6  4  1  o          0.0000      926.1869  358.48   1.49525
   8   3   2  4  1  o          0.0000      104.6885  114.27   1.49524
   6   5   4  4  1  o       1204.2852     1291.4290    3.15   1.49052
   3   0   8  2  1  o        816.3876      861.8790    0.16   1.48981
   8   4   0  4  1  o       8012.7788     8415.7910  183.35   1.48949
   4   3   7  4  1  o        604.7959      632.1714  178.77   1.48897
  -3   6   6  4  1  o          0.0000      747.8107   10.57   1.49265
   6   1   6  4  1  o          0.0000     3234.8784    1.42   1.49186
  -5   7   3  4  1  o          0.0000       66.4416   74.61   1.49169
  -8   4   1  4  1  o         81.6034       85.9179   43.67   1.48780
   6   5   4  4  1  o          0.0000     1291.4290    3.15   1.49052
  -8   3   3  4  1  o       2158.7815     2331.7009  184.45   1.48676
  -4   8   2  4  1  o         46.3133       50.6059  191.37   1.48639
   3   0   8  2  1  o          0.0000      861.8790    0.16   1.48981
   8   4   0  4  1  o          0.0000     8415.7910  183.35   1.48949
   3   8   3  4  1  o        895.5944     1013.3008    0.10   1.48530
   4   3   7  4  1  o          0.0000      632.1714  178.77   1.48897
  -4   4   7  4  1  o       1121.8741     1288.4113  180.20   1.48474
  -8   4   1  4  1  o          0.0000       85.9179   43.67   1.48780
  -3   7   5  4  1  o       7748.1763     9034.6191  185.44   1.48383
  -7   5   3  4  1  o         15.7769       18.4177  155.87   1.48372
  -8   3   3  4  1  o          0.0000     2331.7009  184.45   1.48676
  -4   8   2  4  1  o          0.0000       50.6059  191.37   1.48639
   8   2   3  4  1  o        190.4185      222.3064  171.70   1.48162
   3   8   3  4  1  o          0.0000     1013.3008    0.10   1.48530
  -4   0   8  2  1  o        404.9568      472.3534  178.47   1.48148
  -4   4   7  4  1  o          0.0000     1288.4113  180.20   1.48474
   3   1   8  4  1  o        168.3894      195.7800  188.71   1.48104
  -7   3   5  4  1  o         88.8011      103.0418  355.96   1.48083
   2   9   0  4  1  o       2948.0332     3420.2720  185.00   1.48081
   4   5   6  4  1  o         54.6134       63.3142  158.38   1.48074
  -2   8   4  4  1  o       1284.1014     1485.5524  191.95   1.48055
  -3   7   5  4  1  o          0.0000     9034.6191  185.44   1.48383
  -7   5   3  4  1  o          0.0000       18.4177  155.87   1.48372
   7   1   5  4  1  o       1036.6898     1179.0662  198.16   1.47955
   0   9   2  4  1  o       1055.5499     1178.2872    5.91   1.47888
   8   2   3  4  1  o          0.0000      222.3064  171.70   1.48162
  -4   0   8  2  1  o          0.0000      472.3534  178.47   1.48148
   3   1   8  4  1  o          0.0000      195.7800  188.71   1.48104
  -7   3   5  4  1  o          0.0000      103.0418  355.96   1.48083
   2   9   0  4  1  o          0.0000     3420.2720  185.00   1.48081
   4   5   6  4  1  o          0.0000       63.3142  158.38   1.48074
  -2   8   4  4  1  o          0.0000     1485.5524  191.95   1.48055
   7   1   5  4  1  o          0.0000     1179.0662  198.16   1.47955
   4   7   4  4  1  o        434.6335      421.3482  177.43   1.47541
   2   5   7  4  1  o       1194.5000     1155.0674   11.57   1.47532
   0   9   2  4  1  o          0.0000     1178.2872    5.91   1.47888
   6   4   5  4  1  o       1108.3497     1059.8424  182.68   1.47481
  -2   9   1  4  1  o        482.8630      458.6175  161.82   1.47314
  -4   1   8  4  1  o        290.1313      276.2782  164.01   1.47286
   4   7   4  4  1  o          0.0000      421.3482  177.43   1.47541
  -1   9   2  4  1  o       4890.9834     4732.9453    3.06   1.47172
   8   4   1  4  1  o          1.9532        1.8917  270.78   1.47166
   2   5   7  4  1  o          0.0000     1155.0674   11.57   1.47532
   6   4   5  4  1  o          0.0000     1059.8424  182.68   1.47481
   9   0   0  2  1  o      12959.7266    12696.2910    1.96   1.47096
   4   8   2  4  1  o       4554.9463     4507.8726    4.10   1.47030
  -8   2   4  4  1  o        804.6451      798.5548   13.86   1.47010
   5   4   6  4  1  o       1857.6150     1856.5135  181.46   1.46958
  -2   9   1  4  1  o          0.0000      458.6175  161.82   1.47314
  -5   3   7  4  1  o        715.0023      716.6918    8.73   1.46934
   6   6   3  4  1  o       8526.9980     8547.4414  186.90   1.46934
  -4   1   8  4  1  o          0.0000      276.2782  164.01   1.47286
   2   9   1  4  1  o       2023.9868     2032.6393  353.04   1.46918
   5   1   7  4  1  o       1051.6331     1068.9174    2.65   1.46809
  -1   9   2  4  1  o          0.0000     4732.9453    3.06   1.47172
   8   4   1  4  1  o          0.0000        1.8917  270.78   1.47166
   1   9   2  4  1  o       9886.6514    10084.0264    3.60   1.46776
   9   0   0  2  1  o          0.0000    12696.2910    1.96   1.47096
  -8   4   2  4  1  o        352.1535      362.8962  178.80   1.46679
   4   8   2  4  1  o          0.0000     4507.8726    4.10   1.47030
  -8   2   4  4  1  o          0.0000      798.5548   13.86   1.47010
   2   3   8  4  1  o       1383.4485     1434.4944   19.20   1.46620
   5   4   6  4  1  o          0.0000     1856.5135  181.46   1.46958
   6   2   6  4  1  o       2201.7053     2289.4973  187.36   1.46591
  -5   3   7  4  1  o          0.0000      716.6918    8.73   1.46934
   6   6   3  4  1  o          0.0000     8547.4414  186.90   1.46934
   2   9   1  4  1  o          0.0000     2032.6393  353.04   1.46918
   2   8   4  4  1  o       4472.7920     4701.6821  185.85   1.46465
  -3   5   7  4  1  o        169.7858      178.5157   22.86   1.46461
   5   1   7  4  1  o          0.0000     1068.9174    2.65   1.46809
   1   9   2  4  1  o          0.0000    10084.0264    3.60   1.46776
  -8   4   2  4  1  o          0.0000      362.8962  178.80   1.46679
   6   7   0  4  1  o       9541.8037    10066.3613  183.47   1.46258
   2   3   8  4  1  o          0.0000     1434.4944   19.20   1.46620
   9   1   0  4  1  o       5905.3325     6228.3389  184.80   1.46252
   6   2   6  4  1  o          0.0000     2289.4973  187.36   1.46591
  -9   1   1  4  1  o       2113.6084     2219.8555  180.45   1.46190
   5   7   3  4  1  o         48.9740       51.3003    2.37   1.46163
   2   8   4  4  1  o          0.0000     4701.6821  185.85   1.46465
  -3   5   7  4  1  o          0.0000      178.5157   22.86   1.46461
  -3   3   8  4  1  o       2094.9929     2156.8479    3.53   1.46051
  -7   0   6  2  1  o         91.2270       90.9807   83.39   1.45930
  -5   6   5  4  1  o        626.0160      619.7495  191.58   1.45908
  -6   7   1  4  1  o        995.7163      984.4899  182.32   1.45905
   6   7   0  4  1  o          0.0000    10066.3613  183.47   1.46258
   0   4   8  4  1  o       5172.9136     5090.8403  182.87   1.45892
   9   1   0  4  1  o          0.0000     6228.3389  184.80   1.46252
  -9   1   1  4  1  o          0.0000     2219.8555  180.45   1.46190
   5   7   3  4  1  o          0.0000       51.3003    2.37   1.46163
  -6   5   5  4  1  o       1469.5316     1381.2795  357.78   1.45781
  -1   4   8  4  1  o        707.1972      664.0477  177.86   1.45779
  -3   3   8  4  1  o          0.0000     2156.8479    3.53   1.46051
   3   6   6  4  1  o       3556.7490     3170.7688  181.65   1.45673
  -7   0   6  2  1  o          0.0000       90.9807   83.39   1.45930
   3   2   8  4  1  o       2164.2097     1830.5573  185.00   1.45565
  -5   6   5  4  1  o          0.0000      619.7495  191.58   1.45908
  -6   7   1  4  1  o          0.0000      984.4899  182.32   1.45905
   7   6   0  4  1  o        672.8654      562.1082   15.73   1.45537
   0   4   8  4  1  o          0.0000     5090.8403  182.87   1.45892
   3   7   5  4  1  o        879.0828      705.4038  205.67   1.45424
   7   2   5  4  1  o       2912.2700     2336.4224  191.27   1.45423
  -6   5   5  4  1  o          0.0000     1381.2795  357.78   1.45781
  -1   4   8  4  1  o          0.0000      664.0477  177.86   1.45779
   3   6   6  4  1  o          0.0000     3170.7688  181.65   1.45673
  -7   6   1  4  1  o       1696.0032     1335.4424    2.89   1.45284
  -5   5   6  4  1  o        234.6171      184.7579  141.17   1.45276
   3   2   8  4  1  o          0.0000     1830.5573  185.00   1.45565
   7   6   0  4  1  o          0.0000      562.1082   15.73   1.45537
  -7   1   6  4  1  o         18.9876       15.3983   25.41   1.45106
  -9   0   2  2  1  o       3643.0120     2960.9011    4.20   1.45099
   3   7   5  4  1  o          0.0000      705.4038  205.67   1.45424
   7   2   5  4  1  o          0.0000     2336.4224  191.27   1.45423
  -7   6   1  4  1  o          0.0000     1335.4424    2.89   1.45284
  -5   5   6  4  1  o          0.0000      184.7579  141.17   1.45276
  -4   2   8  4  1  o          2.0346        1.7873  113.01   1.44788
   6   7   1  4  1  o        951.8659      836.9413  177.13   1.44758
  -7   1   6  4  1  o          0.0000       15.3983   25.41   1.45106
  -9   0   2  2  1  o          0.0000     2960.9011    4.20   1.45099
  -2   9   2  4  1  o       1670.2224     1467.3319  358.82   1.44705
   0   7   6  4  1  o       1513.8458     1322.5469  359.60   1.44607
   7   4   4  4  1  o        133.6715      116.4673  184.22   1.44541
  -6   1   7  4  1  o       2129.5542     1855.0562    3.51   1.44518
  -6   6   4  4  1  o       6784.3848     5914.3662    8.20   1.44478
   9   1   1  4  1  o       3329.2949     2903.2671  194.88   1.44470
  -4   2   8  4  1  o          0.0000        1.7873  113.01   1.44788
   6   7   1  4  1  o          0.0000      836.9413  177.13   1.44758
  -2   9   2  4  1  o          0.0000     1467.3319  358.82   1.44705
   5   2   7  4  1  o      12601.8154    11155.9229  182.67   1.44335
  -4   8   3  4  1  o         93.8021       83.3312    5.70   1.44315
  -1   7   6  4  1  o         56.7570       50.4655  171.60   1.44310
  -9   1   2  4  1  o      11136.6543     9943.1895    3.48   1.44289
   7   5   3  4  1  o        641.6904      574.2029  180.71   1.44278
   1   4   8  4  1  o       3274.9026     2941.0967  182.93   1.44260
   0   7   6  4  1  o          0.0000     1322.5469  359.60   1.44607
   7   4   4  4  1  o          0.0000      116.4673  184.22   1.44541
   8   0   4  2  1  o        318.7092      292.3055  186.19   1.44165
  -6   1   7  4  1  o          0.0000     1855.0562    3.51   1.44518
  -6   6   4  4  1  o          0.0000     5914.3662    8.20   1.44478
   9   1   1  4  1  o          0.0000     2903.2671  194.88   1.44470
  -3   8   4  4  1  o        118.0652      111.4773   10.78   1.44002
   8   3   3  4  1  o       1181.4626     1116.2960    7.59   1.43996
   5   2   7  4  1  o          0.0000    11155.9229  182.67   1.44335
   7   6   1  4  1  o       1199.8477     1136.9255    9.98   1.43966
  -4   8   3  4  1  o          0.0000       83.3312    5.70   1.44315
   2   9   2  4  1  o        744.9299      706.3318  189.23   1.43957
  -1   7   6  4  1  o          0.0000       50.4655  171.60   1.44310
  -2   4   8  4  1  o       9042.9756     8584.7510    3.88   1.43935
  -9   1   2  4  1  o          0.0000     9943.1895    3.48   1.44289
   7   5   3  4  1  o          0.0000      574.2029  180.71   1.44278
   1   4   8  4  1  o          0.0000     2941.0967  182.93   1.44260
   8   0   4  2  1  o          0.0000      292.3055  186.19   1.44165
   9   2   0  4  1  o         15.6778       14.8157  174.55   1.43805
  -9   2   1  4  1  o       1234.1400     1156.3230  177.68   1.43746
  -6   7   2  4  1  o        600.7109      561.9282    7.30   1.43737
   3   9   0  4  1  o         70.6041       64.9098   15.96   1.43656
  -3   8   4  4  1  o          0.0000      111.4773   10.78   1.44002
   8   3   3  4  1  o          0.0000     1116.2960    7.59   1.43996
  -6   4   6  4  1  o       1872.8134     1712.5634    0.08   1.43634
   8   4   2  4  1  o        129.8134      118.6886  188.79   1.43634
   7   6   1  4  1  o          0.0000     1136.9255    9.98   1.43966
   5   8   0  4  1  o       2609.3821     2365.8215  187.41   1.43601
   2   9   2  4  1  o          0.0000      706.3318  189.23   1.43957
  -4   6   6  4  1  o        517.2543      467.1803    5.01   1.43586
  -2   4   8  4  1  o          0.0000     8584.7510    3.88   1.43935
   9   2   0  4  1  o          0.0000       14.8157  174.55   1.43805
  -9   2   1  4  1  o          0.0000     1156.3230  177.68   1.43746
  -6   7   2  4  1  o          0.0000      561.9282    7.30   1.43737
   8   1   4  4  1  o          9.6865        8.3177  242.21   1.43370
   0   6   7  4  1  o        901.1208      770.0633   12.43   1.43336
   3   9   0  4  1  o          0.0000       64.9098   15.96   1.43656
  -6   4   6  4  1  o          0.0000     1712.5634    0.08   1.43634
   8   4   2  4  1  o          0.0000      118.6886  188.79   1.43634
   0   9   3  4  1  o         28.7832       24.4616  170.27   1.43260
   5   8   0  4  1  o          0.0000     2365.8215  187.41   1.43601
  -7   6   2  4  1  o       5416.5200     4602.4399    8.32   1.43234
  -4   6   6  4  1  o          0.0000      467.1803    5.01   1.43586
   1   7   6  4  1  o        222.0647      188.8970    5.02   1.43201
  -5   8   1  4  1  o       1314.2004     1120.0061    4.18   1.43175
  -1   6   7  4  1  o       8999.0654     7701.8984  186.86   1.43137
  -5   7   4  4  1  o       1460.4078     1256.9553  176.95   1.43102
   4   4   7  4  1  o       2633.6775     2277.3188  194.29   1.43078
  -3   9   1  4  1  o       1969.5006     1714.7451    7.22   1.43047
   8   1   4  4  1  o          0.0000        8.3177  242.21   1.43370
   0   6   7  4  1  o          0.0000      770.0633   12.43   1.43336
  -8   3   4  4  1  o       1641.1301     1472.1127  176.23   1.42938
   0   9   3  4  1  o          0.0000       24.4616  170.27   1.43260
  -8   4   3  4  1  o       2002.0099     1828.0588  181.46   1.42881
  -7   6   2  4  1  o          0.0000     4602.4399    8.32   1.43234
   1   7   6  4  1  o          0.0000      188.8970    5.02   1.43201
  -5   8   1  4  1  o          0.0000     1120.0061    4.18   1.43175
  -1   6   7  4  1  o          0.0000     7701.8984  186.86   1.43137
  -5   7   4  4  1  o          0.0000     1256.9553  176.95   1.43102
   4   4   7  4  1  o          0.0000     2277.3188  194.29   1.43078
  -7   2   6  4  1  o       1202.5222     1156.1101   13.16   1.42716
  -4   7   5  4  1  o      10156.8174     9780.0342    8.98   1.42710
  -1   9   3  4  1  o       1643.8002     1588.1583    3.01   1.42699
  -3   9   1  4  1  o          0.0000     1714.7451    7.22   1.43047
   0   1   9  4  1  o       4875.4507     4821.1387  184.85   1.42614
  -1   1   9  4  1  o       2982.2412     2960.4026  183.97   1.42599
  -8   3   4  4  1  o          0.0000     1472.1127  176.23   1.42938
  -7   5   4  4  1  o       2272.8652     2268.5083  182.47   1.42578
   6   3   6  4  1  o         84.7165       85.0639  165.13   1.42553
  -8   4   3  4  1  o          0.0000     1828.0588  181.46   1.42881
   3   5   7  4  1  o        103.3291      104.5546   12.40   1.42519
   0   8   5  4  1  o       1230.4420     1247.6121  188.36   1.42510
   3   9   1  4  1  o       7296.5815     7408.8701    7.61   1.42503
  -7   2   6  4  1  o          0.0000     1156.1101   13.16   1.42716
  -4   7   5  4  1  o          0.0000     9780.0342    8.98   1.42710
  -7   4   5  4  1  o          6.4300        6.6973   48.51   1.42354
  -1   9   3  4  1  o          0.0000     1588.1583    3.01   1.42699
  -2   7   6  4  1  o       2243.6638     2340.8701    5.12   1.42340
   5   8   1  4  1  o          7.2035        7.5624   60.54   1.42270
   0   1   9  4  1  o          0.0000     4821.1387  184.85   1.42614
  -1   1   9  4  1  o          0.0000     2960.4026  183.97   1.42599
  -7   5   4  4  1  o          0.0000     2268.5083  182.47   1.42578
   6   3   6  4  1  o          0.0000       85.0639  165.13   1.42553
   3   5   7  4  1  o          0.0000      104.5546   12.40   1.42519
   1   9   3  4  1  o       4249.8179     4473.0630    5.08   1.42159
   0   8   5  4  1  o          0.0000     1247.6121  188.36   1.42510
  -6   2   7  4  1  o        754.2737      793.8499    8.81   1.42155
   3   9   1  4  1  o          0.0000     7408.8701    7.61   1.42503
  -1   8   5  4  1  o        526.5221      553.8971    0.61   1.42136
   4   8   3  4  1  o        171.9921      180.8393  197.13   1.42121
   9   2   1  4  1  o       3768.6091     3960.6533    0.72   1.42110
   4   0   8  2  1  o       5143.8306     5392.0024  190.39   1.42067
  -8   1   5  4  1  o        358.5027      374.6733   14.42   1.42031
  -7   4   5  4  1  o          0.0000        6.6973   48.51   1.42354
  -2   7   6  4  1  o          0.0000     2340.8701    5.12   1.42340
  -9   2   2  4  1  o        127.7164      131.9290    6.03   1.41938
   5   8   1  4  1  o          0.0000        7.5624   60.54   1.42270
   1   6   7  4  1  o        469.9507      480.4183  182.20   1.41876
   3   8   4  4  1  o        795.4166      804.4923    0.82   1.41822
   1   9   3  4  1  o          0.0000     4473.0630    5.08   1.42159
  -6   2   7  4  1  o          0.0000      793.8499    8.81   1.42155
   9   0   2  2  1  o       9559.6807     9609.2227  181.19   1.41792
  -1   8   5  4  1  o          0.0000      553.8971    0.61   1.42136
   4   8   3  4  1  o          0.0000      180.8393  197.13   1.42121
   9   2   1  4  1  o          0.0000     3960.6533    0.72   1.42110
   4   0   8  2  1  o          0.0000     5392.0024  190.39   1.42067
  -8   1   5  4  1  o          0.0000      374.6733   14.42   1.42031
   3   3   8  4  1  o        571.3021      555.2556  191.78   1.41608
  -9   2   2  4  1  o          0.0000      131.9290    6.03   1.41938
   8   5   0  4  1  o         66.4114       64.3697   53.72   1.41581
   6   7   2  4  1  o       3007.1853     2912.1501  180.63   1.41569
   1   6   7  4  1  o          0.0000      480.4183  182.20   1.41876
   7   3   5  4  1  o       1190.3271     1152.8761  356.04   1.41477
   3   8   4  4  1  o          0.0000      804.4923    0.82   1.41822
   9   0   2  2  1  o          0.0000     9609.2227  181.19   1.41792
  -8   5   1  4  1  o        401.1913      390.2905   14.47   1.41436
  -5   4   7  4  1  o       1808.3973     1797.2550   10.72   1.41333
   4   1   8  4  1  o        296.1278      296.5438  188.68   1.41306
  -2   6   7  4  1  o         34.2179       34.3056  338.26   1.41302
   5   6   5  4  1  o        427.9941      429.1432   24.38   1.41302
   3   3   8  4  1  o          0.0000      555.2556  191.78   1.41608
   1   8   5  4  1  o       2035.5612     2073.8181    1.84   1.41250
   8   5   0  4  1  o          0.0000       64.3697   53.72   1.41581
   6   7   2  4  1  o          0.0000     2912.1501  180.63   1.41569
  -4   5   7  4  1  o         85.4182       89.2113   11.40   1.41172
  -5   0   8  2  1  o        613.1096      646.6202  174.67   1.41140
   7   3   5  4  1  o          0.0000     1152.8761  356.04   1.41477
  -8   5   1  4  1  o          0.0000      390.2905   14.47   1.41436
   8   2   4  4  1  o         17.8232       19.1644   11.28   1.41063
   2   4   8  4  1  o       2379.8279     2563.8245  184.49   1.41054
  -5   8   2  4  1  o         65.8675       71.1827  271.12   1.41037
   9   1   2  4  1  o       1292.0242     1396.5304    4.71   1.41036
   1   1   9  4  1  o        823.1944      894.6556   22.02   1.41002
  -5   4   7  4  1  o          0.0000     1797.2550   10.72   1.41333
  -2   1   9  4  1  o       5511.9746     6019.9941  183.66   1.40959
   4   1   8  4  1  o          0.0000      296.5438  188.68   1.41306
  -2   6   7  4  1  o          0.0000       34.3056  338.26   1.41302
   5   6   5  4  1  o          0.0000      429.1432   24.38   1.41302
   1   8   5  4  1  o          0.0000     2073.8181    1.84   1.41250
  -4   3   8  4  1  o        683.7823      749.4783   22.98   1.40892
  -4   5   7  4  1  o          0.0000       89.2113   11.40   1.41172
  -5   0   8  2  1  o          0.0000      646.6202  174.67   1.41140
  -9   1   3  4  1  o       3498.8806     3823.7483   12.96   1.40756
  -3   9   2  4  1  o       4936.1035     5390.0527  186.02   1.40741
   7   6   2  4  1  o       7698.6938     8406.3838  186.54   1.40740
   8   2   4  4  1  o          0.0000       19.1644   11.28   1.41063
   2   4   8  4  1  o          0.0000     2563.8245  184.49   1.41054
  -5   8   2  4  1  o          0.0000       71.1827  271.12   1.41037
   9   1   2  4  1  o          0.0000     1396.5304    4.71   1.41036
   1   1   9  4  1  o          0.0000      894.6556   22.02   1.41002
  -2   1   9  4  1  o          0.0000     6019.9941  183.66   1.40959
  -3   4   8  4  1  o       8612.3379     9277.8418    1.98   1.40547
  -4   3   8  4  1  o          0.0000      749.4783   22.98   1.40892
  -2   9   3  4  1  o         85.7905       92.3245  147.56   1.40533
   5   3   7  4  1  o       1086.5492     1164.2589  186.02   1.40475
  -9   1   3  4  1  o          0.0000     3823.7483   12.96   1.40756
  -5   1   8  4  1  o       5413.0449     5766.9653  183.60   1.40394
  -3   9   2  4  1  o          0.0000     5390.0527  186.02   1.40741
   7   6   2  4  1  o          0.0000     8406.3838  186.54   1.40740
   0   2   9  4  1  o        143.3719      152.2040  196.80   1.40343
  -1   2   9  4  1  o       3424.8643     3632.1443  188.71   1.40328
   6   5   5  4  1  o         44.1569       46.7959   23.07   1.40319
   2   7   6  4  1  o       5294.1147     5571.1592  182.57   1.40234
  -3   4   8  4  1  o          0.0000     9277.8418    1.98   1.40547
  -2   9   3  4  1  o          0.0000       92.3245  147.56   1.40533
   6   6   4  4  1  o       6391.1167     6680.4585    7.40   1.40172
  -2   8   5  4  1  o       2253.4519     2353.8271  179.23   1.40167
   5   3   7  4  1  o          0.0000     1164.2589  186.02   1.40475
   8   5   1  4  1  o        327.4500      335.4663    6.95   1.40047
  -5   1   8  4  1  o          0.0000     5766.9653  183.60   1.40394
   0   2   9  4  1  o          0.0000      152.2040  196.80   1.40343
   9   3   0  4  1  o       4884.3076     4941.9839  189.49   1.39987
  -6   7   3  4  1  o        310.1826      313.7948  182.79   1.39986
  -1   2   9  4  1  o          0.0000     3632.1443  188.71   1.40328
   6   5   5  4  1  o          0.0000       46.7959   23.07   1.40319
  -9   3   1  4  1  o       3048.2512     3047.3618    2.48   1.39932
   2   7   6  4  1  o          0.0000     5571.1592  182.57   1.40234
   5   5   6  4  1  o       1044.8129     1030.3523  177.04   1.39868
   6   6   4  4  1  o          0.0000     6680.4585    7.40   1.40172
  -2   8   5  4  1  o          0.0000     2353.8271  179.23   1.40167
  -8   2   5  4  1  o        359.4271      349.2563  207.38   1.39787
   3   9   2  4  1  o        985.3124      947.9581  193.18   1.39711
   8   5   1  4  1  o          0.0000      335.4663    6.95   1.40047
   9   3   0  4  1  o          0.0000     4941.9839  189.49   1.39987
  -6   7   3  4  1  o          0.0000      313.7948  182.79   1.39986
  -8   5   2  4  1  o         30.8470       29.5125   81.11   1.39627
  -7   6   3  4  1  o       4670.2109     4465.8223  175.23   1.39606
   5   7   4  4  1  o       1106.1835     1057.5627  188.00   1.39587
  -9   3   1  4  1  o          0.0000     3047.3618    2.48   1.39932
   5   5   6  4  1  o          0.0000     1030.3523  177.04   1.39868
   2   9   3  4  1  o        124.1160      118.8495  235.62   1.39508
  -8   2   5  4  1  o          0.0000      349.2563  207.38   1.39787
   3   9   2  4  1  o          0.0000      947.9581  193.18   1.39711
   4   6   6  4  1  o         68.1933       65.7421  320.74   1.39358
   5   8   2  4  1  o       3050.8452     2943.3188   11.83   1.39323
  -8   5   2  4  1  o          0.0000       29.5125   81.11   1.39627
  -7   6   3  4  1  o          0.0000     4465.8223  175.23   1.39606
   5   7   4  4  1  o          0.0000     1057.5627  188.00   1.39587
   4   7   5  4  1  o       2023.3081     1948.5103  184.98   1.39224
   2   9   3  4  1  o          0.0000      118.8495  235.62   1.39508
   4   2   8  4  1  o       5660.3062     5407.6958  186.60   1.39096
   4   6   6  4  1  o          0.0000       65.7421  320.74   1.39358
  -7   3   6  4  1  o        467.9633      444.5649    5.55   1.38981
   5   8   2  4  1  o          0.0000     2943.3188   11.83   1.39323
   0   5   8  4  1  o         38.8001       36.8303  257.45   1.38947
   2   6   7  4  1  o       2486.0730     2358.3967  184.16   1.38906
  -3   7   6  4  1  o        515.5635      489.0228  356.82   1.38895
   4   7   5  4  1  o          0.0000     1948.5103  184.98   1.39224
  -1   5   8  4  1  o       4621.1089     4381.0054  181.55   1.38850
   9   2   2  4  1  o        269.8243      255.7597  179.32   1.38838
   1   2   9  4  1  o       1409.3536     1335.0365    7.78   1.38805
  -2   2   9  4  1  o         99.3236       93.9615   34.08   1.38764
   4   2   8  4  1  o          0.0000     5407.6958  186.60   1.39096
  -4   8   4  4  1  o        363.7622      343.3076    1.95   1.38717
   8   4   3  4  1  o         82.7551       78.0838   20.44   1.38713
  -7   3   6  4  1  o          0.0000      444.5649    5.55   1.38981
   0   5   8  4  1  o          0.0000       36.8303  257.45   1.38947
  -9   2   3  4  1  o       2709.8992     2526.4724  356.53   1.38570
   2   6   7  4  1  o          0.0000     2358.3967  184.16   1.38906
  -3   7   6  4  1  o          0.0000      489.0228  356.82   1.38895
  -1   5   8  4  1  o          0.0000     4381.0054  181.55   1.38850
   9   2   2  4  1  o          0.0000      255.7597  179.32   1.38838
   2   8   5  4  1  o       1435.7496     1327.1628  180.07   1.38483
  -6   3   7  4  1  o       3152.5369     2908.5232  181.71   1.38463
   1   2   9  4  1  o          0.0000     1335.0365    7.78   1.38805
   7   0   6  2  1  o        400.4621      368.2000  197.45   1.38426
   9   3   1  4  1  o        391.9713      360.2339  351.43   1.38422
  -2   2   9  4  1  o          0.0000       93.9615   34.08   1.38764
  -4   8   4  4  1  o          0.0000      343.3076    1.95   1.38717
   8   4   3  4  1  o          0.0000       78.0838   20.44   1.38713
  -9   3   2  4  1  o      19719.5137    17900.3633    4.96   1.38262
  -9   2   3  4  1  o          0.0000     2526.4724  356.53   1.38570
  -5   2   8  4  1  o        935.7838      847.7006  181.57   1.38225
   2   8   5  4  1  o          0.0000     1327.1628  180.07   1.38483
  -6   3   7  4  1  o          0.0000     2908.5232  181.71   1.38463
   7   0   6  2  1  o          0.0000      368.2000  197.45   1.38426
   9   3   1  4  1  o          0.0000      360.2339  351.43   1.38422
   4   9   0  4  1  o         27.9125       25.2191   90.55   1.38078
  -3   6   7  4  1  o         55.1973       50.0225   37.50   1.38011
   2   1   9  4  1  o       2142.7710     1959.6438    7.56   1.37921
  -9   3   2  4  1  o          0.0000    17900.3633    4.96   1.38262
  -5   2   8  4  1  o          0.0000      847.7006  181.57   1.38225
  -3   1   9  4  1  o       1834.0430     1694.6799  189.98   1.37854
   7   5   4  4  1  o       3725.9304     3490.6763  187.01   1.37779
  -8   4   4  4  1  o       2579.5374     2423.0129    3.16   1.37766
   4   9   0  4  1  o          0.0000       25.2191   90.55   1.38078
   7   1   6  4  1  o      12126.0791    11492.2158    3.31   1.37722
  -3   6   7  4  1  o          0.0000       50.0225   37.50   1.38011
  -4   9   1  4  1  o       1223.5498     1185.2546  196.98   1.37618
   2   1   9  4  1  o          0.0000     1959.6438    7.56   1.37921
   1   5   8  4  1  o         19.1050       18.8279  122.28   1.37536
  -3   1   9  4  1  o          0.0000     1694.6799  189.98   1.37854
   0   9   4  4  1  o        559.9820      562.1059  183.08   1.37454
   8   3   4  4  1  o        800.8085      804.0424  347.88   1.37453
  -6   6   5  4  1  o        158.1859      159.2501   33.92   1.37442
   7   5   4  4  1  o          0.0000     3490.6763  187.01   1.37779
  -8   4   4  4  1  o          0.0000     2423.0129    3.16   1.37766
   6   4   6  4  1  o         19.4959       19.7319   11.90   1.37421
  -5   8   3  4  1  o        506.9477      514.8671    7.30   1.37408
   7   1   6  4  1  o          0.0000    11492.2158    3.31   1.37722
  -4   9   1  4  1  o          0.0000     1185.2546  196.98   1.37618
  -2   5   8  4  1  o        722.0684      770.3873  188.74   1.37254
   6   1   7  4  1  o       3442.5811     3720.2439    5.99   1.37219
   1   5   8  4  1  o          0.0000       18.8279  122.28   1.37536
   0   9   4  4  1  o          0.0000      562.1059  183.08   1.37454
   8   3   4  4  1  o          0.0000      804.0424  347.88   1.37453
  -6   6   5  4  1  o          0.0000      159.2501   33.92   1.37442
   6   4   6  4  1  o          0.0000       19.7319   11.90   1.37421
  -5   8   3  4  1  o          0.0000      514.8671    7.30   1.37408
  -1   9   4  4  1  o       2889.5793     3300.5950  184.41   1.37038
  -5   6   6  4  1  o        679.6324      778.7780    5.30   1.37018
   6   7   3  4  1  o       3200.9622     3671.7117    4.60   1.37010
  -6   5   6  4  1  o        180.6393      207.5457  200.64   1.36993
   8   5   2  4  1  o        937.1245     1076.7513   13.62   1.36992
  -3   9   3  4  1  o       3944.3711     4536.6035  187.78   1.36973
   4   9   1  4  1  o         30.3462       34.9027  160.86   1.36973
  -2   5   8  4  1  o          0.0000      770.3873  188.74   1.37254
   6   1   7  4  1  o          0.0000     3720.2439    5.99   1.37219
  -3   8   5  4  1  o         19.2794       21.5269  156.22   1.36793
   0   3   9  4  1  o       4285.6265     4775.4209  359.07   1.36787
  -1   3   9  4  1  o        647.8243      718.7537    3.55   1.36773
   0  10   0  2  1  o       2944.2695     3227.5854  188.28   1.36739
  -1   9   4  4  1  o          0.0000     3300.5950  184.41   1.37038
  -5   6   6  4  1  o          0.0000      778.7780    5.30   1.37018
   6   7   3  4  1  o          0.0000     3671.7117    4.60   1.37010
  -6   5   6  4  1  o          0.0000      207.5457  200.64   1.36993
   8   5   2  4  1  o          0.0000     1076.7513   13.62   1.36992
  -3   9   3  4  1  o          0.0000     4536.6035  187.78   1.36973
   4   9   1  4  1  o          0.0000       34.9027  160.86   1.36973
  -9   0   4  2  1  o        564.6641      591.0502  190.40   1.36613
   3   4   8  4  1  o        510.0556      526.5733  358.64   1.36574
   4   5   7  4  1  o       1864.6351     1882.9996  187.07   1.36510
   7   4   5  4  1  o       3694.1477     3668.7222  189.82   1.36457
  -3   8   5  4  1  o          0.0000       21.5269  156.22   1.36793
   0   3   9  4  1  o          0.0000     4775.4209  359.07   1.36787
  -1   3   9  4  1  o          0.0000      718.7537    3.55   1.36773
   1   9   4  4  1  o        224.9808      220.0047  167.00   1.36402
   0  10   0  2  1  o          0.0000     3227.5854  188.28   1.36739
  -8   5   3  4  1  o       1533.3179     1477.5605  184.02   1.36339
   9   1   3  4  1  o        209.6766      200.3211  354.15   1.36290
  -9   0   4  2  1  o          0.0000      591.0502  190.40   1.36613
  -8   3   5  4  1  o      12730.7559    12131.7646    3.55   1.36272
   3   4   8  4  1  o          0.0000      526.5733  358.64   1.36574
   7   6   3  4  1  o       4066.9426     3848.2629    4.70   1.36180
  -5   7   5  4  1  o        160.2812      151.6530   19.34   1.36178
   4   5   7  4  1  o          0.0000     1882.9996  187.07   1.36510
   4   8   4  4  1  o         37.8974       35.8462  296.03   1.36132
   7   4   5  4  1  o          0.0000     3668.7222  189.82   1.36457
   1   9   4  4  1  o          0.0000      220.0047  167.00   1.36402
   1  10   0  4  1  o        476.0580      451.7837  175.87   1.36015
  -8   5   3  4  1  o          0.0000     1477.5605  184.02   1.36339
   3   7   6  4  1  o       2305.7578     2189.3215  358.69   1.35986
   0  10   1  4  1  o       1888.6200     1793.3527  173.17   1.35977
   9   1   3  4  1  o          0.0000      200.3211  354.15   1.36290
  -9   1   4  4  1  o       1609.3528     1527.3424  187.54   1.35936
  -8   3   5  4  1  o          0.0000    12131.7646    3.55   1.36272
  -4   4   8  4  1  o        980.5723      930.4760    1.16   1.35932
  -7   5   5  4  1  o       1497.7502     1416.9286  183.28   1.35881
   7   7   0  4  1  o       2545.6313     2406.9756  183.24   1.35875
   2   2   9  4  1  o        894.0511      844.3879    2.98   1.35864
   7   6   3  4  1  o          0.0000     3848.2629    4.70   1.36180
  -5   7   5  4  1  o          0.0000      151.6530   19.34   1.36178
  -3   2   9  4  1  o        151.2073      141.6123  169.64   1.35799
   4   8   4  4  1  o          0.0000       35.8462  296.03   1.36132
   1  10   0  4  1  o          0.0000      451.7837  175.87   1.36015
   7   2   6  4  1  o       5787.6978     5310.3159  184.25   1.35673
  -7   7   1  4  1  o        216.3335      198.3690  187.52   1.35669
   3   7   6  4  1  o          0.0000     2189.3215  358.69   1.35986
   0  10   1  4  1  o          0.0000     1793.3527  173.17   1.35977
  -4   9   2  4  1  o         52.7088       48.1303  173.22   1.35639
   4   3   8  4  1  o        594.5479      542.4215  346.90   1.35631
  -9   1   4  4  1  o          0.0000     1527.3424  187.54   1.35936
  -4   4   8  4  1  o          0.0000      930.4760    1.16   1.35932
   5   4   7  4  1  o       2238.8552     2030.2307  183.32   1.35557
   3   9   3  4  1  o        873.9941      792.5291  354.10   1.35556
  -7   5   5  4  1  o          0.0000     1416.9286  183.28   1.35881
   7   7   0  4  1  o          0.0000     2406.9756  183.24   1.35875
   2   2   9  4  1  o          0.0000      844.3879    2.98   1.35864
  -3   2   9  4  1  o          0.0000      141.6123  169.64   1.35799
   8   1   5  4  1  o       1924.8717     1754.7057    3.66   1.35393
   9   3   2  4  1  o       3499.8267     3190.6230    7.98   1.35392
   1   3   9  4  1  o       1566.0345     1431.6259    5.66   1.35362
  -1  10   1  4  1  o       5644.0005     5169.0347    7.65   1.35343
   7   2   6  4  1  o          0.0000     5310.3159  184.25   1.35673
  -7   7   1  4  1  o          0.0000      198.3690  187.52   1.35669
  -2   3   9  4  1  o       5099.8960     4679.2910    1.19   1.35324
  -4   9   2  4  1  o          0.0000       48.1303  173.22   1.35639
   4   3   8  4  1  o          0.0000      542.4215  346.90   1.35631
   5   4   7  4  1  o          0.0000     2030.2307  183.32   1.35557
   3   9   3  4  1  o          0.0000      792.5291  354.10   1.35556
  -2   9   4  4  1  o         11.4622       10.6231  251.45   1.35194
   6   2   7  4  1  o        892.7142      827.4613  170.03   1.35192
   1  10   1  4  1  o       3216.0049     2981.4146  188.59   1.35189
  -9   3   3  4  1  o        557.0222      517.4104  174.05   1.35144
   6   8   0  4  1  o      12857.2598    11951.7832  186.64   1.35123
   9   4   0  4  1  o       1643.4319     1527.9291  180.90   1.35118
  -9   4   1  4  1  o         18.3262       17.0641    4.38   1.35069
   8   1   5  4  1  o          0.0000     1754.7057    3.66   1.35393
   9   3   2  4  1  o          0.0000     3190.6230    7.98   1.35392
   5   8   3  4  1  o        339.7269      316.5442  179.98   1.35048
   1   3   9  4  1  o          0.0000     1431.6259    5.66   1.35362
  -6   7   4  4  1  o        582.9627      543.9236  184.42   1.35012
  -7   1   7  4  1  o       1361.7743     1270.7444  184.60   1.35009
  -1  10   1  4  1  o          0.0000     5169.0347    7.65   1.35343
  -5   5   7  4  1  o        947.0286      884.4366  191.22   1.34992
  -2   3   9  4  1  o          0.0000     4679.2910    1.19   1.35324
  -2   9   4  4  1  o          0.0000       10.6231  251.45   1.35194
   6   2   7  4  1  o          0.0000      827.4613  170.03   1.35192
   1  10   1  4  1  o          0.0000     2981.4146  188.59   1.35189
  -6   8   1  4  1  o        749.3957      709.2399  178.01   1.34844
  -5   3   8  4  1  o       4310.6235     4090.8523  185.30   1.34824
  -9   3   3  4  1  o          0.0000      517.4104  174.05   1.35144
   6   8   0  4  1  o          0.0000    11951.7832  186.64   1.35123
   9   4   0  4  1  o          0.0000     1527.9291  180.90   1.35118
   2   5   8  4  1  o       4345.1128     4173.0488    9.77   1.34749
  -7   6   4  4  1  o       3448.5813     3312.6592  186.86   1.34748
  -9   4   1  4  1  o          0.0000       17.0641    4.38   1.35069
   5   8   3  4  1  o          0.0000      316.5442  179.98   1.35048
   3   6   7  4  1  o      18095.8320    17539.7812    3.30   1.34698
  -6   7   4  4  1  o          0.0000      543.9236  184.42   1.35012
  -7   1   7  4  1  o          0.0000     1270.7444  184.60   1.35009
  -8   0   6  2  1  o       1248.0052     1217.3621  192.84   1.34665
  -5   5   7  4  1  o          0.0000      884.4366  191.22   1.34992
   5   0   8  2  1  o       4420.9785     4350.4731  173.83   1.34620
   7   7   1  4  1  o       5890.1245     5825.7617  186.25   1.34594
  -6   8   1  4  1  o          0.0000      709.2399  178.01   1.34844
  -5   3   8  4  1  o          0.0000     4090.8523  185.30   1.34824
   3   8   5  4  1  o        251.7256      254.9417  180.16   1.34464
   2   5   8  4  1  o          0.0000     4173.0488    9.77   1.34749
  -7   6   4  4  1  o          0.0000     3312.6592  186.86   1.34748
   4   9   2  4  1  o         81.6548       83.3169    6.34   1.34413
   3   6   7  4  1  o          0.0000    17539.7812    3.30   1.34698
  -8   0   6  2  1  o          0.0000     1217.3621  192.84   1.34665
  -3   5   8  4  1  o       3214.2058     3312.1431  181.86   1.34307
   9   2   3  4  1  o       1644.8676     1695.2748  179.14   1.34304
   5   0   8  2  1  o          0.0000     4350.4731  173.83   1.34620
  -4   7   6  4  1  o        549.4555      566.7519  179.00   1.34284
   7   7   1  4  1  o          0.0000     5825.7617  186.25   1.34594
  -7   4   6  4  1  o        113.2070      116.8074    5.28   1.34213
   3   8   5  4  1  o          0.0000      254.9417  180.16   1.34464
   4   9   2  4  1  o          0.0000       83.3169    6.34   1.34413
   0   7   7  4  1  o       4904.4668     5020.3911  185.80   1.34079
  -8   1   6  4  1  o        124.7613      127.1049  194.83   1.34017
  -7   7   2  4  1  o        904.4631      920.2216    2.05   1.33996
   2   9   4  4  1  o        618.1214      628.3256  171.09   1.33980
  -3   5   8  4  1  o          0.0000     3312.1431  181.86   1.34307
   5   1   8  4  1  o          2.8502        2.8961    3.72   1.33972
   9   2   3  4  1  o          0.0000     1695.2748  179.14   1.34304
  -9   2   4  4  1  o        634.1368      644.1110  187.00   1.33965
  -4   7   6  4  1  o          0.0000      566.7519  179.00   1.34284
   6   8   1  4  1  o       1939.2450     1967.8406  181.42   1.33937
  -1   7   7  4  1  o         17.8131       18.0684  352.84   1.33917
   2  10   0  4  1  o       1002.6833     1016.9971  177.29   1.33911
   8   6   0  4  1  o       3437.5989     3486.5237    6.23   1.33905
  -7   4   6  4  1  o          0.0000      116.8074    5.28   1.34213
   0   8   6  4  1  o       1112.2694     1130.5614    6.16   1.33818
  -8   6   1  4  1  o      11384.0879    11595.5615    4.13   1.33782
   0  10   2  4  1  o        131.4830      134.0535  359.11   1.33768
  -6   4   7  4  1  o       2884.6106     2945.5706    5.84   1.33747
   0   7   7  4  1  o          0.0000     5020.3911  185.80   1.34079
   9   4   1  4  1  o       2126.2288     2177.1763  181.66   1.33709
  -8   1   6  4  1  o          0.0000      127.1049  194.83   1.34017
  -7   7   2  4  1  o          0.0000      920.2216    2.05   1.33996
  -6   0   8  2  1  o      14286.0986    14676.7363    6.77   1.33657
   3   1   9  4  1  o        224.4717      230.6771  210.84   1.33651
   2   9   4  4  1  o          0.0000      628.3256  171.09   1.33980
   5   1   8  4  1  o          0.0000        2.8961    3.72   1.33972
  -9   2   4  4  1  o          0.0000      644.1110  187.00   1.33965
   6   8   1  4  1  o          0.0000     1967.8406  181.42   1.33937
  -1   7   7  4  1  o          0.0000       18.0684  352.84   1.33917
  -1   8   6  4  1  o       5434.9688     5594.8594  190.86   1.33582
   2  10   0  4  1  o          0.0000     1016.9971  177.29   1.33911
   8   6   0  4  1  o          0.0000     3486.5237    6.23   1.33905
  -9   4   2  4  1  o          4.8085        4.9492  228.71   1.33565
  -4   1   9  4  1  o      14074.1914    14485.9453    5.33   1.33565
  -4   6   7  4  1  o        951.2764      979.0063  358.87   1.33560
   0   8   6  4  1  o          0.0000     1130.5614    6.16   1.33818
  -8   6   1  4  1  o          0.0000    11595.5615    4.13   1.33782
   8   2   5  4  1  o        106.2265      108.4365  358.04   1.33445
   0  10   2  4  1  o          0.0000      134.0535  359.11   1.33768
  -6   4   7  4  1  o          0.0000     2945.5706    5.84   1.33747
   9   4   1  4  1  o          0.0000     2177.1763  181.66   1.33709
  -2  10   1  4  1  o        308.8418      310.9142  190.01   1.33343
  -6   0   8  2  1  o          0.0000    14676.7363    6.77   1.33657
   3   1   9  4  1  o          0.0000      230.6771  210.84   1.33651
  -1   8   6  4  1  o          0.0000     5594.8594  190.86   1.33582
  -1  10   2  4  1  o      35990.7539    35691.4219    4.30   1.33237
  -9   4   2  4  1  o          0.0000        4.9492  228.71   1.33565
  -4   1   9  4  1  o          0.0000    14485.9453    5.33   1.33565
  -4   6   7  4  1  o          0.0000      979.0063  358.87   1.33560
  -6   8   2  4  1  o        863.6450      847.2537   13.41   1.33127
   8   2   5  4  1  o          0.0000      108.4365  358.04   1.33445
  -7   2   7  4  1  o       9292.6084     9091.2314  186.81   1.33077
   2  10   1  4  1  o       2668.9500     2608.3235  186.34   1.33049
  -6   1   8  4  1  o        811.0366      792.0172  358.48   1.33023
  -2  10   1  4  1  o          0.0000      310.9142  190.01   1.33343
   1  10   2  4  1  o      14750.1680    14381.1543  184.76   1.32944
  -1  10   2  4  1  o          0.0000    35691.4219    4.30   1.33237
   1   7   7  4  1  o        316.2864      307.8352  339.48   1.32882
   6   6   5  4  1  o         54.2300       52.6564  183.42   1.32836
   8   4   4  4  1  o        997.0430      968.0863    3.99   1.32835
  -6   8   2  4  1  o          0.0000      847.2537   13.41   1.33127
  -7   2   7  4  1  o          0.0000     9091.2314  186.81   1.33077
   2  10   1  4  1  o          0.0000     2608.3235  186.34   1.33049
   8   5   3  4  1  o       1709.4675     1635.7531  190.53   1.32704
   1   8   6  4  1  o       6169.5571     5900.7319    5.54   1.32701
  -6   1   8  4  1  o          0.0000      792.0172  358.48   1.33023
   2   3   9  4  1  o       3158.2646     2982.3135  179.80   1.32630
  -5   8   4  4  1  o       1761.3892     1660.7762    6.66   1.32622
   1  10   2  4  1  o          0.0000    14381.1543  184.76   1.32944
   8   6   1  4  1  o         10.3356        9.7132  217.23   1.32606
  -3   3   9  4  1  o        315.1129      293.9833  354.47   1.32569
   1   7   7  4  1  o          0.0000      307.8352  339.48   1.32882
   6   6   5  4  1  o          0.0000       52.6564  183.42   1.32836
   8   4   4  4  1  o          0.0000      968.0863    3.99   1.32835
   5   6   6  4  1  o         48.2795       44.1077  277.53   1.32453
   7   3   6  4  1  o       9491.3027     8670.7451    5.74   1.32453
  -2   7   7  4  1  o        369.7762      336.0691  193.99   1.32410
   5   7   5  4  1  o        213.9811      194.4691  176.84   1.32410
  10   0   0  2  1  o        211.3037      191.6527  347.03   1.32387
   8   5   3  4  1  o          0.0000     1635.7531  190.53   1.32704
   1   8   6  4  1  o          0.0000     5900.7319    5.54   1.32701
  -4   9   3  4  1  o         71.5988       64.8005  211.05   1.32329
  -4   8   5  4  1  o        736.0385      666.2758    9.13   1.32310
   2   3   9  4  1  o          0.0000     2982.3135  179.80   1.32630
  -5   8   4  4  1  o          0.0000     1660.7762    6.66   1.32622
   8   6   1  4  1  o          0.0000        9.7132  217.23   1.32606
  -8   6   2  4  1  o        509.2695      462.6146  192.06   1.32249
  -3   3   9  4  1  o          0.0000      293.9833  354.47   1.32569
   0   4   9  4  1  o         31.1680       28.3551  260.49   1.32234
  -1   4   9  4  1  o        291.9372      265.9396  213.82   1.32222
  -8   2   6  4  1  o       1110.0648     1025.1937  189.28   1.32126
   5   6   6  4  1  o          0.0000       44.1077  277.53   1.32453
   7   3   6  4  1  o          0.0000     8670.7451    5.74   1.32453
  -3   9   4  4  1  o          6.4311        5.9766  135.54   1.32088
   5   2   8  4  1  o        604.4781      562.0753   14.59   1.32084
  -2   7   7  4  1  o          0.0000      336.0691  193.99   1.32410
   5   7   5  4  1  o          0.0000      194.4691  176.84   1.32410
  10   0   0  2  1  o          0.0000      191.6527  347.03   1.32387
  -2   8   6  4  1  o         67.0821       63.0115    7.89   1.32015
   6   3   7  4  1  o          9.5080        8.9433  142.52   1.32005
  -4   9   3  4  1  o          0.0000       64.8005  211.05   1.32329
  -4   8   5  4  1  o          0.0000      666.2758    9.13   1.32310
   7   7   2  4  1  o       2672.3052     2529.7722    0.85   1.31947
  -8   6   2  4  1  o          0.0000      462.6146  192.06   1.32249
   0   4   9  4  1  o          0.0000       28.3551  260.49   1.32234
  -1   4   9  4  1  o          0.0000      265.9396  213.82   1.32222
  -8   5   4  4  1  o        127.8924      121.7929   26.75   1.31874
  -8   2   6  4  1  o          0.0000     1025.1937  189.28   1.32126
 -10   1   1  4  1  o      24091.5508    23059.9160    5.95   1.31796
   5   9   0  4  1  o        131.0191      125.5638    4.33   1.31778
   3   2   9  4  1  o       2915.8821     2794.8438    7.09   1.31776
  10   1   0  4  1  o        548.2072      525.6590  357.71   1.31770
  -8   4   5  4  1  o       1378.7166     1322.2002  194.99   1.31768
  -3   9   4  4  1  o          0.0000        5.9766  135.54   1.32088
   5   2   8  4  1  o          0.0000      562.0753   14.59   1.32084
  -4   2   9  4  1  o       3607.1948     3482.1536  359.12   1.31693
  -2   8   6  4  1  o          0.0000       63.0115    7.89   1.32015
   6   3   7  4  1  o          0.0000        8.9433  142.52   1.32005
   0   6   8  4  1  o       2031.1226     1965.5472  191.56   1.31671
   7   7   2  4  1  o          0.0000     2529.7722    0.85   1.31947
  -1   6   8  4  1  o       6222.5576     6087.1157  183.15   1.31588
   6   5   6  4  1  o         60.2917       59.1226  155.33   1.31571
  -8   5   4  4  1  o          0.0000      121.7929   26.75   1.31874
   6   7   4  4  1  o       2827.6101     2808.1296    5.14   1.31479
 -10   1   1  4  1  o          0.0000    23059.9160    5.95   1.31796
   5   9   0  4  1  o          0.0000      125.5638    4.33   1.31778
   3   2   9  4  1  o          0.0000     2794.8438    7.09   1.31776
  -5   9   1  4  1  o        867.7299      864.6215    0.28   1.31448
  10   1   0  4  1  o          0.0000      525.6590  357.71   1.31770
  -8   4   5  4  1  o          0.0000     1322.2002  194.99   1.31768
  -2  10   2  4  1  o        272.2555      272.2447  191.32   1.31399
   6   8   2  4  1  o       5193.4019     5193.3037  186.46   1.31399
  -4   2   9  4  1  o          0.0000     3482.1536  359.12   1.31693
   0   6   8  4  1  o          0.0000     1965.5472  191.56   1.31671
  -1   6   8  4  1  o          0.0000     6087.1157  183.15   1.31588
   6   5   6  4  1  o          0.0000       59.1226  155.33   1.31571
   9   0   4  2  1  o       1340.0720     1330.3816  180.20   1.31234
   4   4   8  4  1  o       1575.9670     1556.1814    3.79   1.31189
   9   3   3  4  1  o        855.4794      843.5709  185.68   1.31177
  -6   2   8  4  1  o       2947.3672     2905.1580    7.88   1.31174
   6   7   4  4  1  o          0.0000     2808.1296    5.14   1.31479
  -5   9   1  4  1  o          0.0000      864.6215    0.28   1.31448
  -2  10   2  4  1  o          0.0000      272.2447  191.32   1.31399
   6   8   2  4  1  o          0.0000     5193.3037  186.46   1.31399
 -10   0   2  2  1  o       2343.4478     2290.5688    5.38   1.31065
  -7   7   3  4  1  o       4364.3276     4268.9819    5.53   1.31012
   9   4   2  4  1  o       2319.4763     2275.3660    3.34   1.30973
   1   4   9  4  1  o        596.0120      586.4903   12.49   1.30945
   0   9   5  4  1  o        238.0281      234.6105  194.00   1.30933
  -2   4   9  4  1  o        592.2562      585.6655   20.99   1.30911
   9   0   4  2  1  o          0.0000     1330.3816  180.20   1.31234
   4   4   8  4  1  o          0.0000     1556.1814    3.79   1.31189
  -9   3   4  4  1  o       5443.5210     5426.5483  187.91   1.30861
   9   3   3  4  1  o          0.0000      843.5709  185.68   1.31177
  -6   2   8  4  1  o          0.0000     2905.1580    7.88   1.31174
   2  10   2  4  1  o        361.6933      361.9630   11.95   1.30838
   3   5   8  4  1  o        479.7214      480.8800  191.25   1.30827
   4   7   6  4  1  o       1824.1583     1834.4536  179.32   1.30806
  -9   4   3  4  1  o       4092.1926     4143.4912  184.72   1.30748
   5   9   1  4  1  o        526.7607      533.4043  349.04   1.30747
 -10   0   2  2  1  o          0.0000     2290.5688    5.38   1.31065
   7   5   5  4  1  o        316.8570      321.3307   14.14   1.30724
  -7   7   3  4  1  o          0.0000     4268.9819    5.53   1.31012
   7   6   4  4  1  o         15.8510       16.0850  294.64   1.30675
   9   4   2  4  1  o          0.0000     2275.3660    3.34   1.30973
  -1   9   5  4  1  o       1166.2550     1181.6077    5.40   1.30643
   9   1   4  4  1  o       3419.5144     3462.1343    6.21   1.30634
   4   9   3  4  1  o        390.7763      395.5512   22.02   1.30631
   1   4   9  4  1  o          0.0000      586.4903   12.49   1.30945
   3  10   0  4  1  o         10.4262       10.5335  321.13   1.30612
   0   9   5  4  1  o          0.0000      234.6105  194.00   1.30933
  -2   4   9  4  1  o          0.0000      585.6655   20.99   1.30911
  -9   3   4  4  1  o          0.0000     5426.5483  187.91   1.30861
   2  10   2  4  1  o          0.0000      361.9630   11.95   1.30838
   3   5   8  4  1  o          0.0000      480.8800  191.25   1.30827
   4   7   6  4  1  o          0.0000     1834.4536  179.32   1.30806
   1   6   8  4  1  o       1563.5092     1542.6383    2.46   1.30468
 -10   1   2  4  1  o         62.7521       61.9039  339.81   1.30467
  -5   4   8  4  1  o       2015.5598     1984.9983  359.19   1.30458
   2   7   7  4  1  o       2140.6379     2098.7544   15.21   1.30432
  -9   4   3  4  1  o          0.0000     4143.4912  184.72   1.30748
   5   9   1  4  1  o          0.0000      533.4043  349.04   1.30747
   7   5   5  4  1  o          0.0000      321.3307   14.14   1.30724
   3   9   4  4  1  o          1.2184        1.1882  263.32   1.30399
  10   1   1  4  1  o        640.1044      623.7274  178.78   1.30393
   8   3   5  4  1  o       1763.3202     1714.2493  181.18   1.30377
   7   6   4  4  1  o          0.0000       16.0850  294.64   1.30675
   2   8   6  4  1  o        637.6285      616.6965  359.39   1.30329
  -1   9   5  4  1  o          0.0000     1181.6077    5.40   1.30643
   0  10   3  4  1  o       4155.2163     4014.0159  176.74   1.30314
   9   1   4  4  1  o          0.0000     3462.1343    6.21   1.30634
   4   9   3  4  1  o          0.0000      395.5512   22.02   1.30631
   3  10   0  4  1  o          0.0000       10.5335  321.13   1.30612
  -4   5   8  4  1  o        751.2389      724.2067   22.28   1.30262
  -9   1   5  4  1  o        233.9034      225.5160  176.80   1.30233
  -2   6   8  4  1  o      12216.7412    11780.4082    6.36   1.30227
  -3  10   1  4  1  o         29.1674       28.2528  349.88   1.30153
   1   6   8  4  1  o          0.0000     1542.6383    2.46   1.30468
 -10   1   2  4  1  o          0.0000       61.9039  339.81   1.30467
  -5   4   8  4  1  o          0.0000     1984.9983  359.19   1.30458
  -6   8   3  4  1  o        393.7281      382.2693    2.44   1.30130
   2   7   7  4  1  o          0.0000     2098.7544   15.21   1.30432
   3   9   4  4  1  o          0.0000        1.1882  263.32   1.30399
  10   1   1  4  1  o          0.0000      623.7274  178.78   1.30393
   8   3   5  4  1  o          0.0000     1714.2493  181.18   1.30377
  -7   3   7  4  1  o       3031.6870     2980.1399    3.18   1.30034
   2   8   6  4  1  o          0.0000      616.6965  359.39   1.30329
  -6   6   6  4  1  o       9159.8115     9042.0674  184.28   1.30004
   8   6   2  4  1  o       1973.9738     1948.7137    4.37   1.30004
 -10   2   1  4  1  o       1702.8823     1682.7444  177.19   1.29997
   0  10   3  4  1  o          0.0000     4014.0159  176.74   1.30314
  10   2   0  4  1  o        192.1720      190.5536  192.42   1.29972
   1   9   5  4  1  o       5502.0918     5469.6870    4.99   1.29954
  -4   5   8  4  1  o          0.0000      724.2067   22.28   1.30262
   5   5   7  4  1  o        257.8050      257.0850  184.46   1.29932
  -9   1   5  4  1  o          0.0000      225.5160  176.80   1.30233
  -2   6   8  4  1  o          0.0000    11780.4082    6.36   1.30227
  -1  10   3  4  1  o       5283.2422     5298.8672  187.37   1.29891
  -3  10   1  4  1  o          0.0000       28.2528  349.88   1.30153
   5   8   4  4  1  o        606.3278      615.6911   17.30   1.29810
  -6   8   3  4  1  o          0.0000      382.2693    2.44   1.30130
  -5   9   2  4  1  o        290.7838      296.3921  166.09   1.29788
   3  10   1  4  1  o        372.9214      383.4513  188.74   1.29744
  -7   3   7  4  1  o          0.0000     2980.1399    3.18   1.30034
  -3   7   7  4  1  o       3884.0544     4044.5688    9.77   1.29691
  -6   6   6  4  1  o          0.0000     9042.0674  184.28   1.30004
   8   6   2  4  1  o          0.0000     1948.7137    4.37   1.30004
 -10   2   1  4  1  o          0.0000     1682.7444  177.19   1.29997
  10   2   0  4  1  o          0.0000      190.5536  192.42   1.29972
   1   9   5  4  1  o          0.0000     5469.6870    4.99   1.29954
   5   5   7  4  1  o          0.0000      257.0850  184.46   1.29932
   4   6   7  4  1  o       1593.9717     1712.0070  188.23   1.29591
  -1  10   3  4  1  o          0.0000     5298.8672  187.37   1.29891
   9   5   0  4  1  o         62.9235       68.7077  249.21   1.29546
   4   8   5  4  1  o         50.9826       56.2647  178.05   1.29517
  -9   5   1  4  1  o        496.7956      551.4097    0.01   1.29502
   5   8   4  4  1  o          0.0000      615.6911   17.30   1.29810
   1  10   3  4  1  o       1907.8088     2131.8171    7.96   1.29484
  -5   9   2  4  1  o          0.0000      296.3921  166.09   1.29788
  -8   6   3  4  1  o        295.6423      334.9639    0.72   1.29445
   3  10   1  4  1  o          0.0000      383.4513  188.74   1.29744
  -3   7   7  4  1  o          0.0000     4044.5688    9.77   1.29691
   4   6   7  4  1  o          0.0000     1712.0070  188.23   1.29591
  -3   8   6  4  1  o        894.0344     1050.2386   10.85   1.29252
   9   5   0  4  1  o          0.0000       68.7077  249.21   1.29546
  -6   7   5  4  1  o        687.5461      807.1706  188.85   1.29218
   4   8   5  4  1  o          0.0000       56.2647  178.05   1.29517
  -9   5   1  4  1  o          0.0000      551.4097    0.01   1.29502
   1  10   3  4  1  o          0.0000     2131.8171    7.96   1.29484
  -8   3   6  4  1  o        283.2001      330.4022  193.88   1.29146
  -8   6   3  4  1  o          0.0000      334.9639    0.72   1.29445
  -1   0  10  2  1  o        651.7802      757.2645  205.62   1.29113
  -2   9   5  4  1  o         75.2328       87.3683  199.55   1.29109
   5   3   8  4  1  o       1106.6852     1284.8300  182.55   1.29107
   0   0  10  2  1  o       5459.6064     6300.7593  181.36   1.29057
  -7   6   5  4  1  o        167.1787      192.8576  174.06   1.29053
  -3   8   6  4  1  o          0.0000     1050.2386   10.85   1.29252
  -6   7   5  4  1  o          0.0000      807.1706  188.85   1.29218
   9   2   4  4  1  o        128.3711      147.4454    9.03   1.28881
  -5   7   6  4  1  o        925.7568     1064.1558  181.16   1.28866
  -8   3   6  4  1  o          0.0000      330.4022  193.88   1.29146
   3   3   9  4  1  o        393.5987      453.5406  191.45   1.28819
  -1   0  10  2  1  o          0.0000      757.2645  205.62   1.29113
  -2   9   5  4  1  o          0.0000       87.3683  199.55   1.29109
   5   3   8  4  1  o          0.0000     1284.8300  182.55   1.29107
  -7   5   6  4  1  o        234.9760      270.9316  182.18   1.28747
  -4   3   9  4  1  o       2194.0269     2529.0637  176.60   1.28742
   0   0  10  2  1  o          0.0000     6300.7593  181.36   1.29057
  -7   6   5  4  1  o          0.0000      192.8576  174.06   1.29053
 -10   2   2  4  1  o        224.6185      258.5014    7.87   1.28721
  10   2   1  4  1  o         12.7175       14.4366  199.83   1.28650
   9   2   4  4  1  o          0.0000      147.4454    9.03   1.28881
  -5   7   6  4  1  o          0.0000     1064.1558  181.16   1.28866
  -1   1  10  4  1  o        542.5037      587.4228    7.82   1.28541
   4   1   9  4  1  o       2991.0764     3211.2605    0.57   1.28525
   3   3   9  4  1  o          0.0000      453.5406  191.45   1.28819
  -9   2   5  4  1  o       2056.6929     2172.0105    0.69   1.28496
   0   1  10  4  1  o         68.6580       72.0612    9.12   1.28486
   2   4   9  4  1  o       2145.3936     2227.4124  182.53   1.28467
   5   9   2  4  1  o        747.2613      767.6179  174.81   1.28448
  -7   5   6  4  1  o          0.0000      270.9316  182.18   1.28747
  -5   1   9  4  1  o       1774.8373     1801.6627    9.02   1.28427
  -4   3   9  4  1  o          0.0000     2529.0637  176.60   1.28742
  -3   4   9  4  1  o        296.0947      298.2232   15.40   1.28412
  -3  10   2  4  1  o       1853.7100     1864.3110    3.76   1.28409
 -10   2   2  4  1  o          0.0000      258.5014    7.87   1.28721
  10   0   2  2  1  o       4054.1465     3962.2053  187.18   1.28349
  -6   5   7  4  1  o        506.5141      492.4393  357.69   1.28335
  10   2   1  4  1  o          0.0000       14.4366  199.83   1.28650
   7   4   6  4  1  o         92.1833       88.7003   12.35   1.28306
   9   5   1  4  1  o       1367.3785     1314.1086    9.78   1.28302
  -5   6   7  4  1  o       1675.3619     1604.5680    7.83   1.28290
  -6   3   8  4  1  o        313.7994      298.0808  344.75   1.28256
  -2  10   3  4  1  o         23.3209       22.1344  269.26   1.28252
  -1   1  10  4  1  o          0.0000      587.4228    7.82   1.28541
   4   1   9  4  1  o          0.0000     3211.2605    0.57   1.28525
  -9   2   5  4  1  o          0.0000     2172.0105    0.69   1.28496
  -9   5   2  4  1  o        557.0719      524.8676  164.65   1.28175
   7   7   3  4  1  o       1331.8796     1254.9083    2.39   1.28167
   0   1  10  4  1  o          0.0000       72.0612    9.12   1.28486
   2   4   9  4  1  o          0.0000     2227.4124  182.53   1.28467
   5   9   2  4  1  o          0.0000      767.6179  174.81   1.28448
  -5   1   9  4  1  o          0.0000     1801.6627    9.02   1.28427
  -3   4   9  4  1  o          0.0000      298.2232   15.40   1.28412
  -3  10   2  4  1  o          0.0000     1864.3110    3.76   1.28409
   2   6   8  4  1  o       1801.7871     1712.5618  182.87   1.28081
   7   1   7  4  1  o       1465.2893     1394.1113  183.62   1.28076
  10   0   2  2  1  o          0.0000     3962.2053  187.18   1.28349
  -6   5   7  4  1  o          0.0000      492.4393  357.69   1.28335
   7   4   6  4  1  o          0.0000       88.7003   12.35   1.28306
   9   5   1  4  1  o          0.0000     1314.1086    9.78   1.28302
  -4   9   4  4  1  o         69.6594       68.1481   37.28   1.27973
  -5   6   7  4  1  o          0.0000     1604.5680    7.83   1.28290
  -2   0  10  2  1  o        302.0152      297.1401    3.01   1.27956
  -6   3   8  4  1  o          0.0000      298.0808  344.75   1.28256
  -2  10   3  4  1  o          0.0000       22.1344  269.26   1.28252
   8   0   6  2  1  o       1685.4192     1684.2377  180.16   1.27912
 -10   1   3  4  1  o       1704.7518     1709.5219  359.76   1.27902
   6   4   7  4  1  o       3484.9749     3499.5979   10.69   1.27899
  -9   5   2  4  1  o          0.0000      524.8676  164.65   1.28175
   7   7   3  4  1  o          0.0000     1254.9083    2.39   1.28167
   1   0  10  2  1  o       1738.2692     1809.0817    8.55   1.27793
   2   9   5  4  1  o         36.2970       37.8149  134.84   1.27790
  10   1   2  4  1  o        432.0690      450.4952  191.20   1.27787
   2   6   8  4  1  o          0.0000     1712.5618  182.87   1.28081
   7   1   7  4  1  o          0.0000     1394.1113  183.62   1.28076
   6   8   3  4  1  o        294.7956      311.7610  178.84   1.27729
  -3   6   8  4  1  o       1357.1931     1442.3052  181.84   1.27702
  -4   9   4  4  1  o          0.0000       68.1481   37.28   1.27973
  -2   0  10  2  1  o          0.0000      297.1401    3.01   1.27956
   3  10   2  4  1  o       8389.0166     8967.8926  184.65   1.27626
   8   0   6  2  1  o          0.0000     1684.2377  180.16   1.27912
 -10   1   3  4  1  o          0.0000     1709.5219  359.76   1.27902
   6   4   7  4  1  o          0.0000     3499.5979   10.69   1.27899
   8   5   4  4  1  o        263.7672      279.3902  203.62   1.27530
   1   0  10  2  1  o          0.0000     1809.0817    8.55   1.27793
   2   9   5  4  1  o          0.0000       37.8149  134.84   1.27790
   2  10   3  4  1  o        534.7524      558.1876  186.02   1.27471
  10   1   2  4  1  o          0.0000      450.4952  191.20   1.27787
   6   8   3  4  1  o          0.0000      311.7610  178.84   1.27729
  -2   1  10  4  1  o         35.3746       35.9689  184.39   1.27400
  -3   6   8  4  1  o          0.0000     1442.3052  181.84   1.27702
   8   1   6  4  1  o       1200.7506     1197.0398  189.37   1.27356
   3  10   2  4  1  o          0.0000     8967.8926  184.65   1.27626
   1   1  10  4  1  o       8076.6050     7566.7178  185.05   1.27239
   8   5   4  4  1  o          0.0000      279.3902  203.62   1.27530
 -10   3   1  4  1  o      11279.0117    10109.6328  180.77   1.27155
   2  10   3  4  1  o          0.0000      558.1876  186.02   1.27471
   9   4   3  4  1  o          2.5525        2.2771  181.30   1.27146
  10   3   0  4  1  o         41.8205       37.0783  285.78   1.27133
  -2   1  10  4  1  o          0.0000       35.9689  184.39   1.27400
  -5   8   5  4  1  o       1977.4508     1699.4005  184.96   1.27054
   6   0   8  2  1  o       2862.2153     2454.3779    6.41   1.27047
   8   1   6  4  1  o          0.0000     1197.0398  189.37   1.27356
   0   5   9  4  1  o       2856.6973     2418.8621    2.54   1.26997
  -1   5   9  4  1  o       1534.4183     1296.7217    5.22   1.26986
  -7   7   4  4  1  o         71.8230       60.5539  192.00   1.26971
  -5   9   3  4  1  o         44.6706       37.5524   93.66   1.26943
   3   7   7  4  1  o        644.9376      541.7585   10.82   1.26930
   1   1  10  4  1  o          0.0000     7566.7178  185.05   1.27239
   3   8   6  4  1  o       3181.7683     2672.2283    7.39   1.26899
  -1   2  10  4  1  o         93.2316       78.4321  231.52   1.26870
  -9   4   4  4  1  o        345.3970      290.9313    0.62   1.26858
   4   2   9  4  1  o        221.5654      186.6831    2.29   1.26855
 -10   3   1  4  1  o          0.0000    10109.6328  180.77   1.27155
   9   4   3  4  1  o          0.0000        2.2771  181.30   1.27146
  10   3   0  4  1  o          0.0000       37.0783  285.78   1.27133
   0   2  10  4  1  o        656.6231      556.5364    4.60   1.26817
   7   8   0  4  1  o       4849.5347     4117.2983    7.29   1.26809
  -5   2   9  4  1  o       1008.2200      866.1313    3.98   1.26761
  -5   8   5  4  1  o          0.0000     1699.4005  184.96   1.27054
   6   0   8  2  1  o          0.0000     2454.3779    6.41   1.27047
   0   5   9  4  1  o          0.0000     2418.8621    2.54   1.26997
  -1   5   9  4  1  o          0.0000     1296.7217    5.22   1.26986
  -7   7   4  4  1  o          0.0000       60.5539  192.00   1.26971
  -7   8   1  4  1  o          6.6548        5.9625   18.50   1.26641
 
# The following lines are used to test the character set of files sent by     
# network email or other means. They are not part of the CIF data set.        
# abcdefghijklmnopqrstuvwxyzABCDEFGHIJKLMNOPQRSTUVWXYZ0123456789              
# !@#$%^&*()_+{}:"~<>?|\-=[];'`,./ 



_exptl_crystal_density_diffrn
2.64861(7)
_refine_ls_goodness_of_fit_all
1.3541
_chemical_formula_structural
;
K2 Fe1 Si5 O12
;
_cell_formula_units_Z
8
_chemical_formula_moiety
;
K2 Fe1 Si5 O12
;
_cell_length_a
13.2574(5)
_cell_length_b
13.6739(6)
_cell_length_c
12.9240(5)
_pd_prep_pressure
100000
_diffrn_radiation_type
'Cu K\a'
_symmetry_space_group_name_Hall
'-P 2ybc'
_chemical_formula_weight
466.46
_computing_molecular_graphics
'VESTA (Momma & Izumi, 2008)'
_refine_ls_number_restraints
48
_computing_structure_refinement
'FULLPROF (Rodriguez-Carvajal, 2001)'
_database_code_depnum_ccdc_archive
'CCDC 1828927'
_symmetry_space_group_name_H-M
'P 1 21/c 1'
_cell_angle_gamma
90.00000
_cell_measurement_temperature
293
_computing_publication_material
'publCIF (Westrip, 2010)'
_pd_char_colour
'light brown'
_refine_ls_number_reflns
2658
_pd_meas_number_of_points
4189
_cell_volume
2339.54(16)
_pd_prep_temperature
1073
_publcif_datablock.id
'{4897f486-a859-424c-acb9-17842b4a0049}'
_symmetry_cell_setting
monoclinic
_chemical_name_common
'potassium iron silicon oxide'
_refine_ls_R_I_factor
6.9441
_exptl_crystal_density_method
'not measured'
_cell_angle_alpha
90.00000
_refine_ls_number_parameters
169
_chemical_formula_sum
;
Fe1 K2 O12 Si5
;
_cell_angle_beta
93.048(3)
_pd_proc_wavelength
1.540560
loop_
_audit_conform_dict_name
_audit_conform_dict_version
_audit_conform_dict_location
cif_core.dic . ftp://ftp.iucr.org/pub/cif_core.dic
cif_pd.dic . ftp://ftp.iucr.org/pub/cif_pd.dic

loop_
_atom_type_symbol
_atom_type_scat_cromer_mann_a1
_atom_type_scat_cromer_mann_b1
_atom_type_scat_cromer_mann_a2
_atom_type_scat_cromer_mann_b2
_atom_type_scat_cromer_mann_a3
_atom_type_scat_cromer_mann_b3
_atom_type_scat_cromer_mann_a4
_atom_type_scat_cromer_mann_b4
_atom_type_scat_cromer_mann_c
_atom_type_scat_dispersion_real
_atom_type_scat_dispersion_imag
_atom_type_scat_source
k 8.21860 12.79490 7.43980 0.77480 1.05190 213.18700 0.86590 41.68410 1.42280 0.36500 1.06600 International_Tables_for_Crystallography_Vol.C(1991)_Tables_6.1.1.4_and_6.1.1.5
si 6.29150 2.43860 3.03530 32.33370 1.98910 0.67850 1.54100 81.69370 1.14070 0.24400 0.33000 International_Tables_for_Crystallography_Vol.C(1991)_Tables_6.1.1.4_and_6.1.1.5
fe 11.76950 4.76110 7.35730 0.30720 3.52220 15.35350 2.30450 76.88050 1.03690 -1.17900 3.20400 International_Tables_for_Crystallography_Vol.C(1991)_Tables_6.1.1.4_and_6.1.1.5
o 3.04850 13.27710 2.28680 5.70110 1.54630 0.32390 0.86700 32.90890 0.25080 0.04700 0.03200 International_Tables_for_Crystallography_Vol.C(1991)_Tables_6.1.1.4_and_6.1.1.5

loop_
_symmetry_equiv_pos_as_xyz
x,y,z
-x,y+1/2,-z+1/2
-x,-y,-z
x,-y+1/2,z+1/2

loop_
_pd_block_diffractogram_id
K2FeSi5O12pd

loop_
_atom_site_label
_atom_site_fract_x
_atom_site_fract_y
_atom_site_fract_z
_atom_site_u_iso_or_equiv
_atom_site_occupancy
_atom_site_adp_type
_atom_site_type_symbol
K1 0.132(2) 0.113(3) 0.087(2) 0.115(6) 1.00000 Uiso K
K2 0.641(2) 0.397(2) 0.848(3) 0.115(6) 1.00000 Uiso K
K3 0.373(3) 0.353(2) 0.374(3) 0.115(6) 1.00000 Uiso K
K4 0.875(3) 0.145(3) 0.662(2) 0.115(6) 1.00000 Uiso K
Si1 0.1181(13) 0.6754(11) 0.5693(12) 0.051(5) 1.00000 Uiso Si
Si2 0.6509(12) 0.8218(12) 0.4065(12) 0.051(5) 1.00000 Uiso Si
Si3 0.5844(11) 0.1556(11) 0.6500(13) 0.051(5) 1.00000 Uiso Si
Si4 0.0885(11) 0.3588(12) 0.3450(14) 0.051(5) 1.00000 Uiso Si
Fe5 0.6514(10) 0.5613(10) 0.1095(11) 0.057(7) 1.00000 Uiso Fe
Fe6 0.1840(9) 0.9300(10) 0.8664(11) 0.057(7) 1.00000 Uiso Fe
Si7 0.3891(13) 0.8675(11) 0.9452(11) 0.051(5) 1.00000 Uiso Si
Si8 0.9005(14) 0.3762(11) 0.8762(12) 0.051(5) 1.00000 Uiso Si
Si9 0.8554(13) 0.9011(12) 0.3835(11) 0.051(5) 1.00000 Uiso Si
Si10 0.8748(12) 0.6392(12) 0.1231(12) 0.051(5) 1.00000 Uiso Si
Si11 0.3961(11) 0.1172(12) 0.1599(13) 0.051(5) 1.00000 Uiso Si
Si12 0.3313(12) 0.5957(13) 0.6484(12) 0.051(5) 1.00000 Uiso Si
O1 0.4596(12) 0.342(5) 0.149(4) 0.060(6) 1.00000 Uiso O
O2 0.9665(15) 0.145(5) 0.846(3) 0.060(6) 1.00000 Uiso O
O3 0.180(3) 0.4287(15) 0.381(5) 0.060(6) 1.00000 Uiso O
O4 0.586(4) 0.0651(18) 0.568(2) 0.060(6) 1.00000 Uiso O
O5 0.354(5) 0.1833(18) 0.4710(15) 0.060(6) 1.00000 Uiso O
O6 0.913(2) 0.370(4) 0.544(2) 0.060(6) 1.00000 Uiso O
O7 0.6697(14) 0.446(3) 0.624(4) 0.060(6) 1.00000 Uiso O
O8 0.678(2) 0.7120(18) 0.368(5) 0.060(6) 1.00000 Uiso O
O9 0.325(2) 0.628(4) 0.7652(19) 0.060(6) 1.00000 Uiso O
O10 0.2084(19) 0.063(4) 0.334(4) 0.060(6) 1.00000 Uiso O
O11 0.142(4) 0.7920(13) 0.552(4) 0.060(6) 1.00000 Uiso O
O12 0.889(5) 0.860(4) 0.2745(18) 0.060(6) 1.00000 Uiso O
O13 0.9913(12) 0.871(5) 0.679(2) 0.060(6) 1.00000 Uiso O
O14 0.491(3) 0.604(3) 0.389(6) 0.060(6) 1.00000 Uiso O
O15 0.664(4) 0.9807(16) 0.881(4) 0.060(6) 1.00000 Uiso O
O16 0.136(5) 0.5166(13) 0.098(4) 0.060(6) 1.00000 Uiso O
O17 0.878(6) 0.644(4) -0.0043(13) 0.060(6) 1.00000 Uiso O
O18 0.414(2) 0.879(4) 0.0669(15) 0.060(6) 1.00000 Uiso O
O19 0.2166(20) 0.888(3) 0.111(5) 0.060(6) 1.00000 Uiso O
O20 0.136(4) 0.2482(15) 0.829(4) 0.060(6) 1.00000 Uiso O
O21 0.872(5) 0.130(3) 0.2560(17) 0.060(6) 1.00000 Uiso O
O22 0.7335(15) 0.604(4) 0.861(4) 0.060(6) 1.00000 Uiso O
O23 0.601(5) 0.2450(18) 0.085(4) 0.060(6) 1.00000 Uiso O
O24 0.438(2) 0.393(4) 0.7806(15) 0.060(6) 1.00000 Uiso O

loop_
_geom_bond_atom_site_label_1
_geom_bond_atom_site_label_2
_geom_bond_distance
_geom_bond_site_symmetry_2
_geom_bond_publ_flag
K1 O2 3.74(4) 1_454 ?
K1 O2 3.88(7) 3_656 ?
K1 O3 2.83(7) 4_554 ?
K1 O6 3.76(6) 2_645 ?
K1 O6 2.94(4) 4_454 ?
K1 O8 2.89(4) 2_645 ?
K1 O10 3.37(6) 1_555 ?
K1 O12 3.84(6) 2_645 ?
K1 O13 3.52(4) 3_666 ?
K1 O15 3.00(6) 3_666 ?
K1 O17 3.49(7) 3_665 ?
K1 O19 3.28(6) 1_545 ?
K1 O20 3.82(6) 1_554 ?
K1 O20 3.66(5) 4_554 ?
K2 O1 3.81(7) 3_666 ?
K2 O4 3.98(5) 2_656 ?
K2 O4 3.02(5) 4_555 ?
K2 O7 3.02(6) 1_555 ?
K2 O9 3.99(6) 2_646 ?
K2 O11 3.41(6) 2_646 ?
K2 O14 3.45(8) 3_666 ?
K2 O16 3.23(7) 3_666 ?
K2 O18 4.01(6) 3_666 ?
K2 O21 3.36(7) 4_555 ?
K2 O22 3.09(6) 1_555 ?
K2 O23 3.76(6) 1_556 ?
K2 O23 3.93(6) 4_555 ?
K2 O24 2.78(4) 1_555 ?
K3 O1 3.19(6) 1_555 ?
K3 O3 2.77(5) 1_555 ?
K3 O5 2.66(4) 1_555 ?
K3 O7 2.81(5) 3_666 ?
K3 O8 3.71(7) 2_645 ?
K3 O8 3.55(7) 3_666 ?
K3 O12 3.88(7) 2_645 ?
K3 O14 3.77(5) 1_555 ?
K3 O14 3.52(8) 3_666 ?
K3 O15 3.67(6) 2_646 ?
K3 O18 2.91(5) 2_645 ?
K3 O20 3.45(6) 4_554 ?
K3 O22 3.33(6) 3_666 ?
K3 O24 3.69(6) 4_554 ?
K4 O2 2.61(5) 1_555 ?
K4 O6 3.48(6) 1_555 ?
K4 O9 2.87(5) 2_646 ?
K4 O10 3.05(7) 3_656 ?
K4 O11 2.89(6) 3_666 ?
K4 O12 3.19(8) 3_766 ?
K4 O13 4.05(8) 1_545 ?
K4 O16 3.79(6) 2_645 ?
K4 O17 3.95(8) 2_745 ?
K4 O19 3.27(7) 3_666 ?
K4 O21 3.31(6) 4_555 ?
K4 O23 4.01(7) 4_555 ?
Si1 O2 1.66(4) 2_656 ?
Si1 O6 1.62(4) 3_666 ?
Si1 O11 1.64(3) 1_555 ?
Si1 O19 1.63(4) 4_565 ?
Si2 O1 1.62(3) 2_655 ?
Si2 O5 1.59(3) 3_666 ?
Si2 O8 1.63(4) 1_555 ?
Si2 O22 1.63(5) 4_564 ?
Si3 O1 1.65(2) 4_555 ?
Si3 O4 1.63(3) 1_555 ?
Si3 O9 1.63(3) 2_646 ?
Si3 O23 1.62(4) 4_555 ?
Si4 O2 1.62(2) 4_454 ?
Si4 O3 1.59(4) 1_555 ?
Si4 O12 1.59(3) 2_645 ?
Si4 O20 1.61(3) 4_554 ?
Fe5 O4 1.99(3) 4_554 ?
Fe5 O5 1.97(3) 2_655 ?
Fe5 O10 1.96(3) 2_655 ?
Fe5 O24 2.00(3) 3_666 ?
Fe6 O3 1.94(3) 4_565 ?
Fe6 O6 1.96(4) 2_656 ?
Fe6 O7 1.95(2) 2_656 ?
Fe6 O21 1.90(4) 3_666 ?
Si7 O7 1.58(4) 2_656 ?
Si7 O14 1.62(5) 4_565 ?
Si7 O18 1.60(2) 1_556 ?
Si7 O23 1.59(3) 3_666 ?
Si8 O11 1.60(4) 2_646 ?
Si8 O13 1.64(3) 2_746 ?
Si8 O16 1.58(3) 3_666 ?
Si8 O21 1.58(3) 4_555 ?
Si9 O12 1.60(4) 1_555 ?
Si9 O16 1.60(3) 2_655 ?
Si9 O17 1.59(3) 4_565 ?
Si9 O22 1.63(3) 4_564 ?
Si10 O10 1.64(5) 2_655 ?
Si10 O13 1.68(2) 4_564 ?
Si10 O17 1.65(2) 1_555 ?
Si10 O20 1.67(3) 3_666 ?
Si11 O8 1.65(3) 2_645 ?
Si11 O14 1.67(5) 2_645 ?
Si11 O15 1.63(4) 3_666 ?
Si11 O24 1.63(3) 4_554 ?
Si12 O9 1.58(3) 1_555 ?
Si12 O15 1.62(3) 2_646 ?
Si12 O18 1.60(3) 4_565 ?
Si12 O19 1.59(3) 4_565 ?

loop_
_geom_angle_atom_site_label_1
_geom_angle_atom_site_label_2
_geom_angle_atom_site_label_3
_geom_angle
_geom_angle_site_symmetry_1
_geom_angle_site_symmetry_3
_geom_angle_publ_flag
O2 Si1 O6 111(3) 2_656 3_666 ?
O2 Si1 O11 118(4) 2_656 1_555 ?
O2 Si1 O19 102(3) 2_656 4_565 ?
O6 Si1 O11 107(4) 3_666 1_555 ?
O6 Si1 O19 105(4) 3_666 4_565 ?
O11 Si1 O19 114(3) 1_555 4_565 ?
O1 Si2 O5 111(4) 2_655 3_666 ?
O1 Si2 O8 103(3) 2_655 1_555 ?
O1 Si2 O22 110(3) 2_655 4_564 ?
O5 Si2 O8 107(4) 3_666 1_555 ?
O5 Si2 O22 117(4) 3_666 4_564 ?
O8 Si2 O22 108(4) 1_555 4_564 ?
O1 Si3 O4 93(3) 4_555 1_555 ?
O1 Si3 O9 135(3) 4_555 2_646 ?
O1 Si3 O23 98(4) 4_555 4_555 ?
O4 Si3 O9 103(3) 1_555 2_646 ?
O4 Si3 O23 107(3) 1_555 4_555 ?
O9 Si3 O23 115(4) 2_646 4_555 ?
O2 Si4 O3 140(4) 4_454 1_555 ?
O2 Si4 O12 104(4) 4_454 2_645 ?
O2 Si4 O20 112(4) 4_454 4_554 ?
O3 Si4 O12 96(4) 1_555 2_645 ?
O3 Si4 O20 107(3) 1_555 4_554 ?
O12 Si4 O20 78(3) 2_645 4_554 ?
O4 Fe5 O5 126(2) 4_554 2_655 ?
O4 Fe5 O10 120(3) 4_554 2_655 ?
O4 Fe5 O24 101(3) 4_554 3_666 ?
O5 Fe5 O10 101(3) 2_655 2_655 ?
O5 Fe5 O24 96(2) 2_655 3_666 ?
O10 Fe5 O24 109(2) 2_655 3_666 ?
O3 Fe6 O6 110(3) 4_565 2_656 ?
O3 Fe6 O7 85(2) 4_565 2_656 ?
O3 Fe6 O21 120(3) 4_565 3_666 ?
O6 Fe6 O7 134(3) 2_656 2_656 ?
O6 Fe6 O21 94(2) 2_656 3_666 ?
O7 Fe6 O21 116(3) 2_656 3_666 ?
O7 Si7 O14 89(3) 2_656 4_565 ?
O7 Si7 O18 124(4) 2_656 1_556 ?
O7 Si7 O23 124(4) 2_656 3_666 ?
O14 Si7 O18 107(5) 4_565 1_556 ?
O14 Si7 O23 92(4) 4_565 3_666 ?
O18 Si7 O23 109(4) 1_556 3_666 ?
O11 Si8 O13 124(4) 2_646 2_746 ?
O11 Si8 O16 115(3) 2_646 3_666 ?
O11 Si8 O21 117(4) 2_646 4_555 ?
O13 Si8 O16 115(4) 2_746 3_666 ?
O13 Si8 O21 75(3) 2_746 4_555 ?
O16 Si8 O21 101(3) 3_666 4_555 ?
O12 Si9 O16 117(4) 1_555 2_655 ?
O12 Si9 O17 128(3) 1_555 4_565 ?
O12 Si9 O22 98(4) 1_555 4_564 ?
O16 Si9 O17 104(4) 2_655 4_565 ?
O16 Si9 O22 98(4) 2_655 4_564 ?
O17 Si9 O22 106(4) 4_565 4_564 ?
O10 Si10 O13 115(3) 2_655 4_564 ?
O10 Si10 O17 115(4) 2_655 1_555 ?
O10 Si10 O20 113(4) 2_655 3_666 ?
O13 Si10 O17 111(3) 4_564 1_555 ?
O13 Si10 O20 91(3) 4_564 3_666 ?
O17 Si10 O20 110(3) 1_555 3_666 ?
O8 Si11 O14 123(4) 2_645 2_645 ?
O8 Si11 O15 107(3) 2_645 3_666 ?
O8 Si11 O24 116(4) 2_645 4_554 ?
O14 Si11 O15 103(4) 2_645 3_666 ?
O14 Si11 O24 95(4) 2_645 4_554 ?
O15 Si11 O24 112(4) 3_666 4_554 ?
O9 Si12 O15 120(4) 1_555 2_646 ?
O9 Si12 O18 130(3) 1_555 4_565 ?
O9 Si12 O19 99(4) 1_555 4_565 ?
O15 Si12 O18 91(3) 2_646 4_565 ?
O15 Si12 O19 96(3) 2_646 4_565 ?
O18 Si12 O19 117(3) 4_565 4_565 ?
Si2 O1 Si3 152.5(20) 2_645 4_554 ?
Si1 O2 Si4 136(2) 2_646 4_655 ?
Si4 O3 Fe6 126(2) 1_555 4_564 ?
Si3 O4 Fe5 120.2(18) 1_555 4_555 ?
Si2 O5 Fe5 119.2(17) 3_666 2_645 ?
Si1 O6 Fe6 123(2) 3_666 2_646 ?
Fe6 O7 Si7 115(2) 2_646 2_646 ?
Si2 O8 Si11 131(2) 1_555 2_655 ?
Si3 O9 Si12 129(2) 2_656 1_555 ?
Fe5 O10 Si10 122(2) 2_645 2_645 ?
Si1 O11 Si8 123(2) 1_555 2_656 ?
Si4 O12 Si9 159(2) 2_655 1_555 ?
Si4 O12 O20 52(2) 2_655 3_666 ?
Si9 O12 O20 143(4) 1_555 3_666 ?
Si8 O13 Si10 128.6(20) 2_756 4_565 ?
Si8 O13 O21 51(2) 2_756 3_766 ?
Si10 O13 O21 175(4) 4_565 3_766 ?
Si7 O14 Si11 159(3) 4_564 2_655 ?
Si11 O15 Si12 138(2) 3_666 2_656 ?
Si8 O16 Si9 154(2) 3_666 2_645 ?
Si9 O17 Si10 152(2) 4_564 1_555 ?
Si7 O18 Si12 123.9(20) 1_554 4_564 ?
Si1 O19 Si12 156(2) 4_564 4_564 ?
Si4 O20 Si10 138(2) 4_555 3_666 ?
Si4 O20 O12 51(2) 4_555 3_666 ?
Si10 O20 O12 156(4) 3_666 3_666 ?
Fe6 O21 Si8 149(2) 3_666 4_554 ?
Fe6 O21 O13 132(3) 3_666 3_766 ?
Si8 O21 O13 54(2) 4_554 3_766 ?
Si2 O22 Si9 130(2) 4_565 4_565 ?
Si3 O23 Si7 162(2) 4_554 3_666 ?
Fe5 O24 Si11 121.4(18) 3_666 4_555 ?

