data_KNN30at140K
_pd_block_id     KNN30at140K
_pd_proc_2theta_range_min  15 
_pd_proc_2theta_range_max 145
_pd_proc_ls_background_function   'Chebychev with six coefficients' 

loop_
      
_pd_data_point_id                           
      
_pd_meas_2theta_corrected     
_pd_meas_intensity_total                     
      
_pd_calc_intensity_total                     
      
_pd_proc_ls_weight
1	15	57.294	60.83478	0.017453835
2	15.05	62.729	60.83675	0.01594159
3	15.1	60.206	60.83864	0.01660964
4	15.15	61.319	60.84045	0.016308159
5	15.2	60.828	60.84218	0.016439797
6	15.25	60.424	60.84384	0.016549715
7	15.3	65.032	60.84542	0.015377045
8	15.35	61.094	60.84692	0.016368219
9	15.4	56.583	60.84835	0.017673153
10	15.45	60.521	60.84971	0.01652319
11	15.5	61.019	60.851	0.016388338
12	15.55	62.684	60.85221	0.015953034
13	15.6	57.105	60.85335	0.017511601
14	15.65	60.774	60.85443	0.016454405
15	15.7	59.44	60.85543	0.016823688
16	15.75	60.352	60.85637	0.016569459
17	15.8	61.734	60.85724	0.016198529
18	15.85	58.782	60.85805	0.01701201
19	15.9	62.123	60.85879	0.016097098
20	15.95	58.548	60.85947	0.017080003
21	16	58.975	60.86008	0.016956337
22	16.05	61.998	60.86064	0.016129553
23	16.1	61.804	60.86113	0.016180183
24	16.15	62.357	60.86157	0.016036692
25	16.2	62.466	60.86195	0.016008709
26	16.25	57.514	60.86227	0.017387071
27	16.3	61.461	60.86254	0.01627048
28	16.35	61.244	60.86275	0.01632813
29	16.4	60.026	60.86291	0.016659448
30	16.45	62.249	60.86302	0.016064515
31	16.5	60.181	60.86308	0.01661654
32	16.55	61.261	60.86309	0.016323599
33	16.6	64.881	60.86305	0.015412833
34	16.65	65.013	60.86297	0.015381539
35	16.7	62.649	60.86285	0.015961947
36	16.75	56.437	60.86268	0.017718872
37	16.8	55.031	60.86247	0.018171576
38	16.85	62.66	60.86223	0.015959145
39	16.9	62.949	60.86195	0.015885876
40	16.95	62.636	60.86163	0.01596526
41	17	62.59	60.86128	0.015976993
42	17.05	61.017	60.86089	0.016388875
43	17.1	61.355	60.86048	0.01629859
44	17.15	60.292	60.86004	0.016585948
45	17.2	64.795	60.85957	0.01543329
46	17.25	63.73	60.85909	0.015691197
47	17.3	60.81	60.85858	0.016444664
48	17.35	60.339	60.85805	0.016573029
49	17.4	56.591	60.85751	0.017670654
50	17.45	56.945	60.85695	0.017560804
51	17.5	58.297	60.85638	0.017153541
52	17.55	56.64	60.85581	0.017655367
53	17.6	57.711	60.85522	0.017327719
54	17.65	61.71	60.85464	0.016204829
55	17.7	58.167	60.85406	0.017191879
56	17.75	61.475	60.85348	0.016266775
57	17.8	63.157	60.85291	0.015833558
58	17.85	63.387	60.85235	0.015776106
59	17.9	61.24	60.8518	0.016329197
60	17.95	60.67	60.85127	0.016482611
61	18	65.32	60.85077	0.015309247
62	18.05	59.046	60.85029	0.016935948
63	18.1	55.613	60.84984	0.017981407
64	18.15	55.685	60.84942	0.017958157
65	18.2	58.045	60.84905	0.017228013
66	18.25	58.348	60.84872	0.017138548
67	18.3	57.752	60.84844	0.017315418
68	18.35	61.109	60.84821	0.016364202
69	18.4	66.175	60.84805	0.015111447
70	18.45	61.108	60.84795	0.016364469
71	18.5	60.008	60.84792	0.016664445
72	18.55	59.332	60.84798	0.016854311
73	18.6	61.503	60.84812	0.016259369
74	18.65	57.491	60.84835	0.017394027
75	18.7	59.828	60.84869	0.016714582
76	18.75	61.401	60.84914	0.01628638
77	18.8	63.383	60.8497	0.015777101
78	18.85	58.801	60.85039	0.017006513
79	18.9	55.088	60.85122	0.018152774
80	18.95	55.39	60.85219	0.0180538
81	19	56.672	60.85333	0.017645398
82	19.05	58.142	60.85463	0.017199271
83	19.1	61.479	60.85611	0.016265717
84	19.15	60.131	60.85778	0.016630357
85	19.2	58.145	60.85966	0.017198383
86	19.25	60.191	60.86177	0.016613779
87	19.3	58.205	60.86411	0.017180655
88	19.35	60.887	60.8667	0.016423867
89	19.4	60.57	60.86956	0.016509823
90	19.45	61.849	60.87271	0.01616841
91	19.5	62.486	60.87617	0.016003585
92	19.55	59.054	60.87996	0.016933654
93	19.6	60.609	60.8841	0.0164992
94	19.65	58.587	60.88862	0.017068633
95	19.7	57.588	60.89353	0.017364729
96	19.75	57.86	60.89888	0.017283097
97	19.8	62.989	60.90469	0.015875788
98	19.85	59.888	60.91099	0.016697836
99	19.9	63.242	60.91782	0.015812277
100	19.95	60.201	60.9252	0.01661102
101	20	60.747	60.9332	0.016461718
102	20.05	57.849	60.94184	0.017286384
103	20.1	63.654	60.95117	0.015709932
104	20.15	63.912	60.96125	0.015646514
105	20.2	61.678	60.97213	0.016213236
106	20.25	60.66	60.98387	0.016485328
107	20.3	62.778	60.99654	0.015929147
108	20.35	62.652	61.0102	0.015961182
109	20.4	60.746	61.02494	0.016461989
110	20.45	59.15	61.04084	0.016906171
111	20.5	58.7	61.05799	0.017035775
112	20.55	60.576	61.07649	0.016508188
113	20.6	62.563	61.09647	0.015983888
114	20.65	58.999	61.11803	0.01694944
115	20.7	56.207	61.14132	0.017791378
116	20.75	60.105	61.1665	0.016637551
117	20.8	59.542	61.19376	0.016794867
118	20.85	60.593	61.22334	0.016503557
119	20.9	65.546	61.25546	0.015256461
120	20.95	66.592	61.29041	0.015016819
121	21	59.698	61.32856	0.01675098
122	21.05	54.687	61.37066	0.018285881
123	21.1	57.843	61.41712	0.017288177
124	21.15	64.091	61.46527	0.015602815
125	21.2	60.793	61.51773	0.016449262
126	21.25	57.79	61.57498	0.017304032
127	21.3	58.657	61.63754	0.017048264
128	21.35	61.255	61.70602	0.016325198
129	21.4	61.797	61.78112	0.016182015
130	21.45	61.729	61.86365	0.016199841
131	21.5	59.237	61.95453	0.016881341
132	21.55	61.647	62.05484	0.01622139
133	21.6	64.337	62.16582	0.015543156
134	21.65	61.09	62.28896	0.016369291
135	21.7	62.075	62.42599	0.016109545
136	21.75	67.594	62.57898	0.014794213
137	21.8	64.412	62.75045	0.015525057
138	21.85	67.161	62.94353	0.014889594
139	21.9	71.297	63.16238	0.014025836
140	21.95	75.537	63.41294	0.013238545
141	22	71.605	63.70459	0.013965505
142	22.05	74.742	64.05342	0.013379358
143	22.1	82.687	64.48832	0.0120938
144	22.15	82.982	65.06146	0.012050806
145	22.2	88.744	65.8647	0.011268367
146	22.25	87.517	67.05275	0.011426351
147	22.3	87.75	68.87227	0.011396011
148	22.35	92.235	71.69368	0.010841871
149	22.4	100.03	76.04076	0.009997001
150	22.45	110.685	82.61272	0.009034648
151	22.5	118.615	92.29705	0.008430637
152	22.55	126.533	106.17559	0.007903077
153	22.6	140.378	125.52951	0.007123623
154	22.65	149.271	151.84696	0.006699225
155	22.7	170.411	186.8047	0.005868166
156	22.75	196.8	232.21687	0.005081301
157	22.8	240.307	289.78515	0.004161344
158	22.85	281.395	360.58943	0.003553723
159	22.9	339.689	444.26454	0.002943869
160	22.95	421.259	538.00162	0.002373837
161	23	512.482	635.72324	0.001951288
162	23.05	625.577	727.91975	0.001598524
163	23.1	731.748	802.53829	0.001366591
164	23.15	824.333	847.09867	0.001213102
165	23.2	893.397	851.73955	0.001119323
166	23.25	902.367	812.65024	0.001108197
167	23.3	830.534	734.47212	0.001204045
168	23.35	699.357	629.46719	0.001429885
169	23.4	570.159	513.36309	0.001753897
170	23.45	453.185	400.77126	0.002206604
171	23.5	365.069	302.31152	0.002739208
172	23.55	294.227	223.57805	0.003398736
173	23.6	238.972	165.53443	0.004184591
174	23.65	188.362	125.8423	0.005308926
175	23.7	154.033	100.50673	0.006492115
176	23.75	125.928	85.28425	0.007941046
177	23.8	112.106	76.56007	0.008920129
178	23.85	96.291	71.68506	0.010385187
179	23.9	80.727	68.93636	0.012387429
180	23.95	73.775	67.30147	0.013554727
181	24	69.033	66.23514	0.014485826
182	24.05	68.966	65.46409	0.014499899
183	24.1	66.702	64.85803	0.014992054
184	24.15	64.52	64.35555	0.01549907
185	24.2	63.452	63.92632	0.015759945
186	24.25	61.677	63.55363	0.016213499
187	24.3	64.004	63.22678	0.015624023
188	24.35	60.457	62.9381	0.016540682
189	24.4	61.087	62.68165	0.016370095
190	24.45	62.066	62.45265	0.016111881
191	24.5	60.299	62.24717	0.016584023
192	24.55	56.821	62.06198	0.017599127
193	24.6	57.253	61.89437	0.017466334
194	24.65	57.727	61.74207	0.017322916
195	24.7	58.092	61.60315	0.017214074
196	24.75	62.204	61.476	0.016076137
197	24.8	62.059	61.35923	0.016113698
198	24.85	60.272	61.25163	0.016591452
199	24.9	60.534	61.1522	0.016519642
200	24.95	62.09	61.06003	0.016105653
201	25	58.999	60.97436	0.01694944
202	25.05	60.283	60.89452	0.016588425
203	25.1	61.984	60.81992	0.016133196
204	25.15	57.543	60.75005	0.017378308
205	25.2	62.251	60.68444	0.016063999
206	25.25	57.121	60.62272	0.017506696
207	25.3	58.722	60.56451	0.017029393
208	25.35	61.751	60.5095	0.01619407
209	25.4	57.194	60.45741	0.017484352
210	25.45	56.98	60.40799	0.017550018
211	25.5	56.558	60.36102	0.017680965
212	25.55	58.183	60.31629	0.017187151
213	25.6	58.769	60.27363	0.017015774
214	25.65	59.383	60.23287	0.016839836
215	25.7	55.902	60.19386	0.017888448
216	25.75	60.081	60.15647	0.016644197
217	25.8	58.461	60.12058	0.017105421
218	25.85	57.751	60.08608	0.017315717
219	25.9	62.475	60.05286	0.016006403
220	25.95	60.514	60.02085	0.016525102
221	26	60.925	59.98996	0.016413623
222	26.05	62.36	59.9601	0.01603592
223	26.1	61.621	59.93121	0.016228234
224	26.15	62.564	59.90323	0.015983633
225	26.2	55.813	59.8761	0.017916973
226	26.25	57.004	59.84977	0.017542629
227	26.3	62.32	59.82418	0.016046213
228	26.35	62.127	59.79929	0.016096061
229	26.4	58.783	59.77506	0.017011721
230	26.45	55.514	59.75145	0.018013474
231	26.5	59.519	59.72842	0.016801358
232	26.55	58.799	59.70594	0.017007092
233	26.6	63.809	59.68398	0.01567177
234	26.65	59.976	59.66252	0.016673336
235	26.7	58.627	59.64152	0.017056987
236	26.75	57.034	59.62096	0.017533401
237	26.8	55.628	59.60082	0.017976559
238	26.85	56.195	59.58108	0.017795178
239	26.9	57.702	59.56171	0.017330422
240	26.95	56.212	59.54271	0.017789796
241	27	56.824	59.52405	0.017598198
242	27.05	55.11	59.50571	0.018145527
243	27.1	55.188	59.48769	0.018119881
244	27.15	55.166	59.46997	0.018127107
245	27.2	58.323	59.45253	0.017145894
246	27.25	58.378	59.43537	0.017129741
247	27.3	59.8	59.41848	0.016722408
248	27.35	59.913	59.40184	0.016690868
249	27.4	56.99	59.38544	0.017546938
250	27.45	58.464	59.36928	0.017104543
251	27.5	61.813	59.35334	0.016177827
252	27.55	59.383	59.33763	0.016839836
253	27.6	56.808	59.32213	0.017603154
254	27.65	57.286	59.30684	0.017456272
255	27.7	59.192	59.29175	0.016894175
256	27.75	57.664	59.27685	0.017341842
257	27.8	58.014	59.26215	0.017237219
258	27.85	54.574	59.24763	0.018323744
259	27.9	59.519	59.2333	0.016801358
260	27.95	55.338	59.21914	0.018070765
261	28	58.173	59.20516	0.017190105
262	28.05	62.077	59.19136	0.016109026
263	28.1	61.185	59.17772	0.016343875
264	28.15	55.403	59.16426	0.018049564
265	28.2	57.734	59.15096	0.017320816
266	28.25	61.853	59.13783	0.016167365
267	28.3	58.635	59.12486	0.01705466
268	28.35	59.275	59.11206	0.016870519
269	28.4	60.143	59.09942	0.016627039
270	28.45	56.645	59.08695	0.017653809
271	28.5	58.45	59.07464	0.01710864
272	28.55	58.799	59.06249	0.017007092
273	28.6	56.859	59.05052	0.017587365
274	28.65	60.98	59.03871	0.016398819
275	28.7	63.605	59.02707	0.015722034
276	28.75	61.011	59.0156	0.016390487
277	28.8	56.7	59.00431	0.017636684
278	28.85	58.927	58.9932	0.01697015
279	28.9	60.509	58.98227	0.016526467
280	28.95	58.499	58.97152	0.017094309
281	29	56.968	58.96097	0.017553714
282	29.05	57.11	58.95061	0.017510068
283	29.1	58.359	58.94045	0.017135318
284	29.15	57.809	58.9305	0.017298345
285	29.2	52.718	58.92076	0.018968853
286	29.25	55.67	58.91124	0.017962996
287	29.3	54.712	58.90195	0.018277526
288	29.35	57.354	58.89289	0.017435576
289	29.4	59.482	58.88409	0.016811809
290	29.45	57.928	58.87553	0.017262809
291	29.5	61.172	58.86725	0.016347348
292	29.55	56.499	58.85924	0.017699428
293	29.6	50.473	58.85153	0.019812573
294	29.65	51.65	58.84412	0.019361084
295	29.7	56.565	58.83783	0.017678777
296	29.75	58.789	58.83388	0.017009985
297	29.8	58.847	58.83342	0.01699322
298	29.85	61.572	58.83943	0.016241149
299	29.9	60.644	58.8722	0.016489677
300	29.95	56.579	58.87874	0.017674402
301	30	55.952	58.87438	0.017872462
302	30.05	56.751	58.87049	0.017620835
303	30.1	59.844	58.86711	0.016710113
304	30.15	57.731	58.86426	0.017321716
305	30.2	59.279	58.86198	0.01686938
306	30.25	60.916	58.8603	0.016416048
307	30.3	57.422	58.85928	0.017414928
308	30.35	58.797	58.85895	0.01700767
309	30.4	56.645	58.85936	0.017653809
310	30.45	58.02	58.86058	0.017235436
311	30.5	59.696	58.86265	0.016751541
312	30.55	60.054	58.86566	0.01665168
313	30.6	56.66	58.86966	0.017649135
314	30.65	55.732	58.87475	0.017943013
315	30.7	57.667	58.88102	0.01734094
316	30.75	57.94	58.88856	0.017259234
317	30.8	56.696	58.89749	0.017637929
318	30.85	54.144	58.90794	0.018469267
319	30.9	59.735	58.92005	0.016740604
320	30.95	56.612	58.93397	0.017664099
321	31	56.766	58.94989	0.017616179
322	31.05	58.92	58.968	0.016972166
323	31.1	56.173	58.98853	0.017802147
324	31.15	55.799	59.01174	0.017921468
325	31.2	57.562	59.03794	0.017372572
326	31.25	58.105	59.06744	0.017210223
327	31.3	59.422	59.10065	0.016828784
328	31.35	52.556	59.13801	0.019027323
329	31.4	53.974	59.18002	0.018527439
330	31.45	53.532	59.22731	0.018680415
331	31.5	54.303	59.28056	0.018415189
332	31.55	61.769	59.34059	0.016189351
333	31.6	60.721	59.40838	0.016468767
334	31.65	57.424	59.48508	0.017414322
335	31.7	63.729	59.57206	0.015691443
336	31.75	64.449	59.67098	0.015516145
337	31.8	64.463	59.78387	0.015512775
338	31.85	62.725	59.91328	0.015942607
339	31.9	61.845	60.06253	0.016169456
340	31.95	58.506	60.2363	0.017092264
341	32	64.661	60.44175	0.015465273
342	32.05	67.19	60.69088	0.014883167
343	32.1	62.254	61.00505	0.016063225
344	32.15	64.249	61.4231	0.015564445
345	32.2	65.889	62.01487	0.01517704
346	32.25	61.227	62.90177	0.016332664
347	32.3	65.087	64.28548	0.015364051
348	32.35	68.428	66.48387	0.014613901
349	32.4	71.723	69.96967	0.013942529
350	32.45	71.822	75.40136	0.01392331
351	32.5	78.144	83.62652	0.012796888
352	32.55	88.648	95.62729	0.01128057
353	32.6	99.834	112.37452	0.010016628
354	32.65	115.128	134.57412	0.008685984
355	32.7	137.951	162.33267	0.007248951
356	32.75	167.478	194.82178	0.005970933
357	32.8	207.032	230.0591	0.004830171
358	32.85	241.171	264.92832	0.004146436
359	32.9	275.834	295.51967	0.003625369
360	32.95	306.126	317.82703	0.003266629
361	33	344.484	328.80675	0.002902892
362	33.05	327.027	327.43786	0.003057851
363	33.1	314.103	314.83825	0.003183669
364	33.15	302.797	293.22924	0.003302543
365	33.2	270.12	264.99174	0.003702058
366	33.25	242.18	232.59691	0.00412916
367	33.3	196.462	198.85063	0.005090043
368	33.35	167.788	166.6127	0.005959902
369	33.4	130.522	138.13544	0.007661544
370	33.45	105.681	114.7025	0.009462439
371	33.5	91.623	96.66361	0.01091429
372	33.55	84.461	83.6425	0.011839784
373	33.6	79.795	74.80459	0.012532114
374	33.65	65.559	69.13224	0.015253436
375	33.7	60.03	65.65139	0.016658337
376	33.75	65.861	63.5689	0.015183493
377	33.8	59.452	62.31697	0.016820292
378	33.85	58.02	61.53144	0.017235436
379	33.9	56.419	61	0.017724525
380	33.95	55.314	60.60827	0.018078606
381	34	56.292	60.29805	0.017764514
382	34.05	54.765	60.0403	0.018259837
383	34.1	63.009	59.82002	0.015870749
384	34.15	59.712	59.62871	0.016747053
385	34.2	61.013	59.46088	0.01638995
386	34.25	58.258	59.31258	0.017165025
387	34.3	59.197	59.18077	0.016892748
388	34.35	59.209	59.06301	0.016889324
389	34.4	58.925	58.9573	0.016970725
390	34.45	58.996	58.86201	0.016950302
391	34.5	62.624	58.77575	0.015968319
392	34.55	60.036	58.69739	0.016656673
393	34.6	55.031	58.62597	0.018171576
394	34.65	55.965	58.56069	0.017868311
395	34.7	54.942	58.50098	0.018201012
396	34.75	56.426	58.44635	0.017722327
397	34.8	55.934	58.39669	0.017878214
398	34.85	54.99	58.35206	0.018185125
399	34.9	52.151	58.30869	0.019175088
400	34.95	55.201	58.26848	0.018115614
401	35	58.218	58.23114	0.017176818
402	35.05	56.303	58.19643	0.017761043
403	35.1	63.075	58.16412	0.015854142
404	35.15	53.708	58.13402	0.0186192
405	35.2	56.807	58.10596	0.017603464
406	35.25	56.277	58.0798	0.017769249
407	35.3	55.4	58.0554	0.018050542
408	35.35	59.22	58.03265	0.016886187
409	35.4	57.01	58.01145	0.017540782
410	35.45	55.912	57.9917	0.017885248
411	35.5	56.76	57.97334	0.017618041
412	35.55	57.897	57.9563	0.017272052
413	35.6	57.348	57.94051	0.0174374
414	35.65	58.925	57.92593	0.016970725
415	35.7	56.273	57.9125	0.017770512
416	35.75	58.232	57.90021	0.017172689
417	35.8	56.84	57.88907	0.017593244
418	35.85	56.611	57.87957	0.017664412
419	35.9	52.135	57.87219	0.019180972
420	35.95	57.046	57.86842	0.017529713
421	36	58.722	57.87166	0.017029393
422	36.05	60.933	57.86577	0.016411468
423	36.1	59.846	57.86092	0.016709555
424	36.15	58.276	57.85737	0.017159723
425	36.2	59.08	57.85559	0.016926202
426	36.25	55.696	57.85629	0.017954611
427	36.3	53.042	57.86437	0.018852984
428	36.35	55.501	57.86709	0.018017693
429	36.4	55.699	57.86876	0.017953644
430	36.45	56.209	57.8716	0.017790745
431	36.5	55.755	57.87566	0.017935611
432	36.55	54.459	57.88097	0.018362438
433	36.6	58.585	57.8876	0.017069216
434	36.65	59.158	57.8956	0.016903885
435	36.7	58.697	57.90505	0.017036646
436	36.75	61.105	57.91602	0.016365273
437	36.8	61.58	57.92859	0.016239039
438	36.85	60.197	57.94288	0.016612124
439	36.9	66.333	57.959	0.015075453
440	36.95	60.299	57.97705	0.016584023
441	37	62.813	57.9972	0.015920271
442	37.05	62.923	58.01959	0.01589244
443	37.1	64.874	58.0444	0.015414496
444	37.15	62.206	58.07183	0.01607562
445	37.2	61.514	58.10212	0.016256462
446	37.25	64.462	58.13552	0.015513015
447	37.3	62.139	58.17231	0.016092953
448	37.35	55.935	58.21285	0.017877894
449	37.4	57.585	58.2575	0.017365633
450	37.45	60.975	58.30671	0.016400164
451	37.5	60.085	58.361	0.016643089
452	37.55	61.25	58.42094	0.016326531
453	37.6	62.056	58.48723	0.016114477
454	37.65	61.351	58.56068	0.016299653
455	37.7	58.583	58.64223	0.017069798
456	37.75	61.351	58.73302	0.016299653
457	37.8	60.301	58.83438	0.016583473
458	37.85	56.667	58.94793	0.017646955
459	37.9	62.787	59.07563	0.015926864
460	37.95	62.401	59.2199	0.016025384
461	38	61.034	59.38376	0.01638431
462	38.05	57.466	59.5712	0.017401594
463	38.1	63.184	59.78776	0.015826792
464	38.15	61.377	60.04202	0.016292748
465	38.2	63.676	60.34858	0.015704504
466	38.25	56.459	60.73424	0.017711968
467	38.3	62.61	61.24977	0.015971889
468	38.35	67.625	61.99047	0.014787431
469	38.4	64.84	63.12846	0.015422579
470	38.45	67.306	64.95771	0.014857516
471	38.5	71.562	67.94591	0.013973897
472	38.55	69.864	72.77649	0.014313523
473	38.6	76.086	80.3478	0.013143022
474	38.65	84.122	91.6825	0.011887497
475	38.7	101.355	107.70008	0.009866311
476	38.75	109.157	128.83924	0.009161117
477	38.8	131.144	154.59681	0.007625206
478	38.85	161.648	183.14875	0.006186281
479	38.9	195.631	211.257	0.005111664
480	38.95	226.871	234.60511	0.004407791
481	39	252.708	248.61718	0.003957136
482	39.05	266.321	249.79449	0.003754867
483	39.1	251.005	237.3624	0.003983984
484	39.15	221.93	214.06398	0.004505925
485	39.2	184.326	184.91941	0.005425171
486	39.25	152.136	155.04578	0.006573066
487	39.3	127.829	128.27169	0.007822951
488	39.35	109.713	106.71897	0.00911469
489	39.4	95.023	90.9388	0.010523768
490	39.45	86.899	80.35818	0.011507612
491	39.5	81.158	73.83744	0.012321644
492	39.55	75.574	70.14775	0.013232064
493	39.6	77.522	68.26184	0.012899564
494	39.65	76.548	67.45707	0.013063699
495	39.7	74.241	67.29584	0.013469646
496	39.75	76.737	67.55811	0.013031523
497	39.8	72.314	68.17995	0.013828581
498	39.85	68.173	69.22425	0.014668564
499	39.9	74.775	70.89155	0.013373454
500	39.95	82.714	73.56791	0.012089852
501	40	88.129	77.89796	0.011347003
502	40.05	91.651	84.85708	0.010910956
503	40.1	101.5	95.77542	0.009852217
504	40.15	112.147	112.2472	0.008916868
505	40.2	125.458	135.85899	0.007970795
506	40.25	148.981	167.7189	0.006712265
507	40.3	182.942	207.88242	0.005466213
508	40.35	235.193	254.91697	0.004251827
509	40.4	291.852	305.89957	0.003426394
510	40.45	362.157	357.00773	0.002761233
511	40.5	414.259	404.66368	0.002413949
512	40.55	458.632	447.12916	0.002180397
513	40.6	480.827	486.11026	0.00207975
514	40.65	507.488	526.57374	0.00197049
515	40.7	548.026	573.24217	0.001824731
516	40.75	595.639	626.13707	0.001678869
517	40.8	672.645	678.5505	0.001486668
518	40.85	778.519	718.0718	0.00128449
519	40.9	828.15	730.18366	0.001207511
520	40.95	799.998	704.17582	0.001250003
521	41	711.844	639.50468	0.001404802
522	41.05	566.405	547.12482	0.001765521
523	41.1	416.388	443.58169	0.002401606
524	41.15	294.576	344.02698	0.00339471
525	41.2	216.396	258.74026	0.004621158
526	41.25	163.878	192.45421	0.0061021
527	41.3	129.608	145.20545	0.007715573
528	41.35	101.805	114.01348	0.0098227
529	41.4	82.023	94.69933	0.012191702
530	41.45	79.018	83.26358	0.012655344
531	41.5	67.097	76.59483	0.014903796
532	41.55	67	72.60363	0.014925373
533	41.6	62.594	70.04585	0.015975972
534	41.65	56.282	68.25289	0.01776767
535	41.7	62.24	66.88699	0.016066838
536	41.75	64.945	65.7837	0.015397644
537	41.8	58.669	64.86106	0.017044777
538	41.85	59.739	64.07466	0.016739483
539	41.9	65.19	63.39709	0.015339776
540	41.95	59.308	62.81162	0.016861132
541	42	59.989	62.29664	0.016669723
542	42.05	62.599	61.84148	0.015974696
543	42.1	59.185	61.43841	0.016896173
544	42.15	61.337	61.0833	0.016303373
545	42.2	64.667	60.76618	0.015463838
546	42.25	60.904	60.48255	0.016419283
547	42.3	59.362	60.22804	0.016845794
548	42.35	56.548	59.99901	0.017684091
549	42.4	63.641	59.79236	0.015713141
550	42.45	59.487	59.6055	0.016810396
551	42.5	60.217	59.43618	0.016606606
552	42.55	60.539	59.28251	0.016518277
553	42.6	60.849	59.14284	0.016434124
554	42.65	59.814	59.01576	0.016718494
555	42.7	60.755	58.90004	0.016459551
556	42.75	60.59	58.79462	0.016504374
557	42.8	56.658	58.69856	0.017649758
558	42.85	57.091	58.61106	0.017515896
559	42.9	60.236	58.53142	0.016601368
560	42.95	56.683	58.459	0.017641974
561	43	56.121	58.39325	0.017818642
562	43.05	58.788	58.33371	0.017010274
563	43.1	59.626	58.27994	0.016771207
564	43.15	55.49	58.23157	0.018021265
565	43.2	56.047	58.18828	0.017842168
566	43.25	53.752	58.14978	0.018603959
567	43.3	55.641	58.11581	0.017972359
568	43.35	59.301	58.08615	0.016863122
569	43.4	58.196	58.06062	0.017183312
570	43.45	62.144	58.03904	0.016091658
571	43.5	57.246	58.02128	0.017468469
572	43.55	61.036	58.00721	0.016383774
573	43.6	60.487	57.99674	0.016532478
574	43.65	62.03	57.98978	0.016121232
575	43.7	67.2	57.98626	0.014880952
576	43.75	67.215	57.98616	0.014877631
577	43.8	67.872	57.98942	0.014733616
578	43.85	63.832	57.99604	0.015666124
579	43.9	68.141	58.00601	0.014675452
580	43.95	66.673	58.01935	0.014998575
581	44	64.315	58.03609	0.015548472
582	44.05	61.416	58.05626	0.016282402
583	44.1	67.286	58.07994	0.014861933
584	44.15	63.319	58.10718	0.015793048
585	44.2	66.172	58.13808	0.015112132
586	44.25	63.218	58.17274	0.01581828
587	44.3	64.473	58.21128	0.015510369
588	44.35	64.326	58.25384	0.015545814
589	44.4	62.773	58.30057	0.015930416
590	44.45	63.137	58.35165	0.015838573
591	44.5	67.69	58.40728	0.014773231
592	44.55	59.198	58.46767	0.016892463
593	44.6	57.586	58.53307	0.017365332
594	44.65	59.302	58.60375	0.016862838
595	44.7	67.095	58.68001	0.01490424
596	44.75	61.224	58.76217	0.016333464
597	44.8	58.544	58.85062	0.01708117
598	44.85	62.169	58.94574	0.016085187
599	44.9	61.73	59.04799	0.016199579
600	44.95	58.152	59.15787	0.017196313
601	45	61.874	59.27591	0.016161877
602	45.05	61.945	59.40274	0.016143353
603	45.1	58.884	59.53901	0.016982542
604	45.15	62.047	59.68549	0.016116815
605	45.2	61.19	59.843	0.01634254
606	45.25	61.303	60.01246	0.016312415
607	45.3	58.914	60.19492	0.016973894
608	45.35	58.559	60.39153	0.017076794
609	45.4	63.188	60.60358	0.01582579
610	45.45	61.527	60.83253	0.016253027
611	45.5	62.158	61.08001	0.016088034
612	45.55	58.96	61.34788	0.016960651
613	45.6	58.189	61.63823	0.017185379
614	45.65	61.243	61.95343	0.016328397
615	45.7	62.757	62.29619	0.015934477
616	45.75	66.226	62.66958	0.01509981
617	45.8	65.741	63.07717	0.015211208
618	45.85	59.389	63.52314	0.016838135
619	45.9	63.373	64.01258	0.015779591
620	45.95	65.929	64.55272	0.015167832
621	46	66.589	65.1447	0.015017495
622	46.05	70.492	65.79888	0.014186007
623	46.1	73.987	66.52397	0.013515888
624	46.15	77.921	67.33031	0.012833511
625	46.2	79.869	68.23015	0.012520502
626	46.25	78.026	69.23815	0.012816241
627	46.3	84.612	70.37195	0.011818655
628	46.35	84.319	71.6529	0.011859723
629	46.4	86.131	73.10707	0.011610222
630	46.45	92.637	74.76654	0.010794823
631	46.5	88.566	76.67125	0.011291015
632	46.55	91.032	78.87186	0.010985148
633	46.6	93.589	81.43471	0.010685016
634	46.65	94.879	84.45187	0.01053974
635	46.7	100.775	88.06331	0.009923096
636	46.75	108.289	92.50677	0.009234548
637	46.8	119.655	98.22553	0.008357361
638	46.85	131.394	106.08454	0.007610698
639	46.9	147.847	117.76147	0.006763749
640	46.95	180.227	136.36655	0.005548558
641	47	220.326	167.26133	0.004538729
642	47.05	281.05	218.85079	0.003558086
643	47.1	384.346	302.82513	0.002601822
644	47.15	518.628	433.05271	0.001928164
645	47.2	671.06	622.3361	0.00149018
646	47.25	911.691	876.82064	0.001096863
647	47.3	1219.615	1189.07074	0.000819931
648	47.35	1556.304	1532.35825	0.000642548
649	47.4	1898.892	1859.53194	0.000526623
650	47.45	2126.249	2109.02799	0.000470312
651	47.5	2201.614	2219.8652	0.000454212
652	47.55	2100.851	2156.83858	0.000475998
653	47.6	1814.635	1934.26108	0.000551075
654	47.65	1450.046	1610.64672	0.000689633
655	47.7	1096.059	1256.07883	0.00091236
656	47.75	798.168	926.14348	0.001252869
657	47.8	592.379	653.62404	0.001688108
658	47.85	452.214	449.78906	0.002211342
659	47.9	349.362	309.9806	0.002862361
660	47.95	276.695	220.93178	0.003614088
661	48	217.628	167.33912	0.004594997
662	48.05	176.073	136.04394	0.005679462
663	48.1	138.31	117.62423	0.007230135
664	48.15	118.116	106.20502	0.008466254
665	48.2	97.902	98.50591	0.010214296
666	48.25	81.899	92.84215	0.012210161
667	48.3	79.235	88.38851	0.012620685
668	48.35	71.677	84.73792	0.013951477
669	48.4	71.269	81.6739	0.014031346
670	48.45	73.945	79.06596	0.013523565
671	48.5	69.461	76.82515	0.014396568
672	48.55	63.078	74.88552	0.015853388
673	48.6	68.183	73.19588	0.014666412
674	48.65	68.227	71.71561	0.014656954
675	48.7	61.561	70.41198	0.016244051
676	48.75	62.008	69.25841	0.016126951
677	48.8	64.265	68.23311	0.01556057
678	48.85	59.773	67.31809	0.016729962
679	48.9	56.448	66.49843	0.01771542
680	48.95	62.244	65.76162	0.016065806
681	49	63.912	65.09717	0.015646514
682	49.05	64.877	64.4962	0.015413783
683	49.1	63.69	63.95116	0.015701052
684	49.15	61.787	63.4556	0.016184634
685	49.2	60.623	63.004	0.01649539
686	49.25	58.894	62.59161	0.016979658
687	49.3	56.759	62.21429	0.017618351
688	49.35	59.747	61.86849	0.016737242
689	49.4	56.789	61.55109	0.017609044
690	49.45	56.935	61.25938	0.017563889
691	49.5	52.461	60.99099	0.019061779
692	49.55	56.021	60.74381	0.017850449
693	49.6	58.276	60.51603	0.017159723
694	49.65	53.034	60.30601	0.018855828
695	49.7	56.263	60.11234	0.01777367
696	49.75	59.372	59.93375	0.016842956
697	49.8	60.57	59.76913	0.016509823
698	49.85	55.954	59.61748	0.017871823
699	49.9	57.669	59.47795	0.017340339
700	49.95	59.219	59.34975	0.016886472
701	50	56.169	59.23222	0.017803415
702	50.05	57.196	59.12476	0.01748374
703	50.1	57.998	59.02686	0.017241974
704	50.15	60.58	58.93807	0.016507098
705	50.2	61.95	58.85802	0.01614205
706	50.25	55.875	58.78637	0.017897092
707	50.3	52.393	58.72289	0.019086519
708	50.35	54.642	58.66735	0.018300941
709	50.4	57.874	58.61961	0.017278916
710	50.45	59.373	58.57959	0.016842673
711	50.5	55.244	58.54724	0.018101513
712	50.55	56.126	58.52259	0.017817054
713	50.6	55.114	58.50572	0.01814421
714	50.65	59.309	58.49676	0.016860847
715	50.7	56.714	58.49596	0.017632331
716	50.75	57.457	58.50358	0.01740432
717	50.8	59.676	58.52003	0.016757155
718	50.85	59.076	58.54578	0.016927348
719	50.9	56.429	58.58144	0.017721384
720	50.95	54.108	58.62771	0.018481555
721	51	55.602	58.68547	0.017984965
722	51.05	58.527	58.75582	0.017086131
723	51.1	56.243	58.84006	0.01777999
724	51.15	59.802	58.93979	0.016721849
725	51.2	57.976	59.05693	0.017248517
726	51.25	59.555	59.19381	0.016791201
727	51.3	60.223	59.353	0.016604952
728	51.35	62.595	59.53898	0.015975717
729	51.4	61.631	59.75827	0.016225601
730	51.45	63.134	60.01639	0.015839326
731	51.5	55.141	60.32384	0.018135326
732	51.55	57.442	60.699	0.017408865
733	51.6	58.266	61.17782	0.017162668
734	51.65	56.647	61.82665	0.017653186
735	51.7	62.146	62.77503	0.01609114
736	51.75	65.297	64.25757	0.015314639
737	51.8	66.855	66.66323	0.014957744
738	51.85	64.278	70.56647	0.015557422
739	51.9	65.925	76.69707	0.015168752
740	51.95	79.345	85.80142	0.012603189
741	52	95.061	98.37518	0.010519561
742	52.05	98.28	114.2407	0.01017501
743	52.1	123.998	132.18633	0.008064646
744	52.15	150.309	149.88489	0.006652962
745	52.2	167.145	164.00702	0.005982829
746	52.25	175.786	171.04055	0.005688735
747	52.3	179.93	168.81435	0.005557717
748	52.35	165.531	158.02582	0.006041164
749	52.4	139.848	141.94324	0.007150621
750	52.45	122.544	124.42481	0.008160334
751	52.5	106.573	108.44358	0.00938324
752	52.55	93.874	95.70979	0.010652577
753	52.6	81.207	86.69076	0.012314209
754	52.65	75.978	81.17693	0.013161705
755	52.7	79.221	78.54038	0.012622916
756	52.75	78.052	78.16802	0.012811972
757	52.8	78.684	79.75515	0.012709064
758	52.85	82.45	83.51879	0.012128563
759	52.9	90.944	90.37743	0.010995778
760	52.95	104.437	102.1001	0.009575151
761	53	124.11	121.33095	0.008057368
762	53.05	157.802	151.30645	0.006337055
763	53.1	203.183	195.08828	0.004921672
764	53.15	269.16	254.29944	0.003715262
765	53.2	350.411	327.64009	0.002853792
766	53.25	440.971	409.73324	0.002267723
767	53.3	520.308	490.97995	0.001921939
768	53.35	599.255	559.12784	0.001668739
769	53.4	640.12	603.43729	0.001562207
770	53.45	633.521	621.04389	0.00157848
771	53.5	620.832	619.42134	0.001610742
772	53.55	607.34	609.46918	0.001646524
773	53.6	603.853	596.57055	0.001656032
774	53.65	597.345	577.81254	0.001674074
775	53.7	562.002	545.21809	0.001779353
776	53.75	493.018	493.02322	0.002028324
777	53.8	429.465	424.0244	0.002328478
778	53.85	339.536	348.00714	0.002945196
779	53.9	257.582	275.29579	0.003882259
780	53.95	203.69	212.9885	0.004909421
781	54	156.638	164.35447	0.006384147
782	54.05	123.834	129.42549	0.008075327
783	54.1	97.156	106.09131	0.010292725
784	54.15	89.079	91.35114	0.01122599
785	54.2	76.639	82.31694	0.013048187
786	54.25	75.544	76.74654	0.013237319
787	54.3	71.029	73.14914	0.014078757
788	54.35	64.639	70.64651	0.015470536
789	54.4	61.723	68.76635	0.016201416
790	54.45	62.443	67.26774	0.016014605
791	54.5	57.768	66.02764	0.017310622
792	54.55	57.491	64.9788	0.017394027
793	54.6	58.617	64.07993	0.017059897
794	54.65	60.318	63.30258	0.016578799
795	54.7	58.479	62.62553	0.017100156
796	54.75	58.834	62.03227	0.016996975
797	54.8	58.369	61.50959	0.017132382
798	54.85	61.024	61.04685	0.016386995
799	54.9	57.22	60.63534	0.017476407
800	54.95	56.236	60.26791	0.017782204
801	55	59.033	59.93863	0.016939678
802	55.05	58.448	59.64255	0.017109225
803	55.1	53.223	59.37552	0.018788869
804	55.15	55.378	59.13402	0.018057712
805	55.2	61.569	58.91507	0.01624194
806	55.25	53.541	58.71615	0.018677275
807	55.3	55.552	58.53507	0.018001152
808	55.35	54.078	58.36995	0.018491808
809	55.4	52.951	58.21919	0.018885385
810	55.45	56.075	58.08138	0.017833259
811	55.5	54.915	57.95605	0.018209961
812	55.55	52.293	57.84369	0.019123018
813	55.6	54.311	57.73802	0.018412476
814	55.65	51.122	57.64128	0.01956105
815	55.7	54.456	57.55274	0.018363449
816	55.75	55.71	57.47245	0.017950099
817	55.8	53.509	57.40133	0.018688445
818	55.85	54.56	57.33397	0.018328446
819	55.9	57.814	57.27272	0.017296849
820	55.95	55.099	57.21723	0.01814915
821	56	57.606	57.16716	0.017359303
822	56.05	54.198	57.12224	0.018450865
823	56.1	51.249	57.08287	0.019512576
824	56.15	55.846	57.05587	0.017906385
825	56.2	55.661	57.02939	0.017965901
826	56.25	57.346	57.00305	0.017438008
827	56.3	54.946	56.98097	0.018199687
828	56.35	55.759	56.96306	0.017934325
829	56.4	58.566	56.94928	0.017074753
830	56.45	56.071	56.93958	0.017834531
831	56.5	54.242	56.93396	0.018435898
832	56.55	52.965	56.93337	0.018880393
833	56.6	52.903	56.94131	0.01890252
834	56.65	54.473	56.9482	0.018357719
835	56.7	56.679	56.95942	0.017643219
836	56.75	55.929	56.97511	0.017879812
837	56.8	56.238	56.9954	0.017781571
838	56.85	57.071	57.02047	0.017522034
839	56.9	56.734	57.05054	0.017626115
840	56.95	56.858	57.08588	0.017587675
841	57	57.847	57.12674	0.017286981
842	57.05	56.236	57.17474	0.017782204
843	57.1	55.734	57.2337	0.017942369
844	57.15	57.254	57.29523	0.017466029
845	57.2	57.313	57.36461	0.017448048
846	57.25	56.25	57.44262	0.017777778
847	57.3	59.533	57.5343	0.016797406
848	57.35	59.838	57.64614	0.016711788
849	57.4	59.602	57.75593	0.01677796
850	57.45	55.161	57.87886	0.01812875
851	57.5	56.028	58.0166	0.017848219
852	57.55	61.548	58.17113	0.016247482
853	57.6	64.018	58.34481	0.015620607
854	57.65	56.8	58.54049	0.017605634
855	57.7	61.051	58.7616	0.016379748
856	57.75	61.144	59.0123	0.016354834
857	57.8	60.702	59.29773	0.016473922
858	57.85	58.639	59.62422	0.017053497
859	57.9	60.359	59.99977	0.016567538
860	57.95	56.653	60.43473	0.017651316
861	58	62.211	60.9432	0.016074328
862	58.05	62.585	61.54606	0.01597827
863	58.1	61.473	62.27793	0.016267304
864	58.15	63.739	63.20224	0.015688982
865	58.2	67.565	64.44107	0.014800562
866	58.25	66.143	66.22638	0.015118758
867	58.3	67.77	68.97301	0.014755792
868	58.35	69.801	73.35398	0.014326442
869	58.4	78.835	80.32755	0.012684721
870	58.45	87.766	91.03775	0.011393934
871	58.5	98.712	106.51707	0.010130481
872	58.55	118.116	127.19786	0.008466254
873	58.6	147.779	152.32649	0.006766861
874	58.65	178.543	179.50228	0.005600892
875	58.7	210.114	204.62327	0.004759321
876	58.75	226.738	222.70215	0.004410377
877	58.8	230.552	230.21441	0.004337416
878	58.85	225.337	228.29585	0.004437798
879	58.9	221.277	223.20811	0.004519223
880	58.95	215.879	222.78106	0.004632225
881	59	221.19	232.7586	0.004521
882	59.05	246.997	255.08762	0.004048632
883	59.1	283.53	287.23189	0.003526964
884	59.15	328.755	322.25374	0.003041779
885	59.2	366.958	350.31716	0.002725108
886	59.25	388.628	362.42629	0.002573155
887	59.3	378.289	354.74915	0.002643482
888	59.35	358.777	329.01899	0.002787247
889	59.4	319.195	289.96133	0.003132881
890	59.45	256.069	244.19521	0.003905197
891	59.5	204.403	198.91018	0.004892296
892	59.55	156.957	159.43325	0.006371172
893	59.6	128.49	128.22604	0.007782707
894	59.65	104.629	105.44754	0.00955758
895	59.7	90.053	89.89699	0.011104572
896	59.75	82.26	79.82695	0.012156577
897	59.8	74.717	73.5151	0.013383835
898	59.85	66.986	69.57345	0.014928493
899	59.9	62.909	67.03424	0.015895977
900	59.95	64.466	65.29662	0.015512053
901	60	61.775	64.02016	0.016187778
902	60.05	60.49	63.02359	0.016531658
903	60.1	60.069	62.21208	0.016647522
904	60.15	60.981	61.534	0.01639855
905	60.2	62.2	60.95855	0.01607717
906	60.25	58.105	60.46519	0.017210223
907	60.3	57.302	60.039	0.017451398
908	60.35	56.112	59.66853	0.0178215
909	60.4	56.621	59.34477	0.017661292
910	60.45	57.324	59.06048	0.0174447
911	60.5	55.555	58.80983	0.01800018
912	60.55	57.921	58.58802	0.017264895
913	60.6	56.59	58.3911	0.017670967
914	60.65	56.461	58.21583	0.017711341
915	60.7	57.78	58.05947	0.017307027
916	60.75	65.042	57.91975	0.015374681
917	60.8	62.692	57.79474	0.015950999
918	60.85	57.048	57.68282	0.017529098
919	60.9	63.199	57.58261	0.015823035
920	60.95	57.563	57.49293	0.01737227
921	61	59.082	57.41279	0.016925629
922	61.05	60.833	57.34134	0.016438446
923	61.1	59.177	57.27784	0.016898457
924	61.15	58.405	57.2217	0.017121822
925	61.2	60.93	57.17238	0.016412276
926	61.25	61.339	57.12946	0.016302842
927	61.3	61.023	57.09258	0.016387264
928	61.35	56.146	57.06147	0.017810708
929	61.4	60.486	57.03589	0.016532751
930	61.45	61.311	57.01753	0.016310287
931	61.5	56.46	57.01156	0.017711654
932	61.55	62.178	57.002	0.016082859
933	61.6	60.659	56.99774	0.0164856
934	61.65	56.281	56.99889	0.017767986
935	61.7	60.084	57.00563	0.016643366
936	61.75	60.409	57.01822	0.016553825
937	61.8	61.284	57.03823	0.016317473
938	61.85	59.132	57.06778	0.016911317
939	61.9	64.137	57.10061	0.015591624
940	61.95	60.937	57.1415	0.016410391
941	62	63.547	57.19143	0.015736384
942	62.05	63.424	57.25159	0.015766902
943	62.1	61.245	57.32351	0.016327863
944	62.15	62.875	57.4091	0.015904573
945	62.2	59.446	57.51078	0.01682199
946	62.25	66.79	57.63164	0.014972301
947	62.3	60.237	57.77569	0.016601092
948	62.35	62.92	57.94834	0.015893198
949	62.4	64.88	58.15727	0.01541307
950	62.45	59.238	58.41456	0.016881056
951	62.5	59.887	58.74153	0.016698115
952	62.55	54.635	59.17912	0.018303285
953	62.6	60.849	59.80813	0.016434124
954	62.65	61.907	60.78245	0.016153262
955	62.7	65.856	62.37284	0.015184645
956	62.75	68.084	65.00403	0.014687739
957	62.8	72.545	69.24893	0.013784548
958	62.85	77.224	75.73188	0.012949342
959	62.9	87.42	84.91095	0.01143903
960	62.95	94.678	96.76043	0.010562116
961	63	111.633	110.43005	0.008957925
962	63.05	122.485	123.98432	0.008164265
963	63.1	128.312	134.42149	0.007793503
964	63.15	135.553	138.47609	0.007377188
965	63.2	123.494	134.53308	0.008097559
966	63.25	117.162	124.05537	0.008535191
967	63.3	110.619	110.40246	0.009040038
968	63.35	99.054	96.67222	0.010095503
969	63.4	90.531	84.81002	0.01104594
970	63.45	81.286	75.65365	0.012302241
971	63.5	78.251	69.21692	0.012779389
972	63.55	72.481	65.0293	0.013796719
973	63.6	66.488	62.45494	0.015040308
974	63.65	64.149	60.9137	0.015588708
975	63.7	61.158	59.97865	0.016351091
976	63.75	58.865	59.38037	0.016988023
977	63.8	68.072	58.96754	0.014690328
978	63.85	61.384	58.66173	0.01629089
979	63.9	61.671	58.42354	0.016215077
980	63.95	56.816	58.23256	0.017600676
981	64	61.242	58.07707	0.016328663
982	64.05	54.658	57.94957	0.018295583
983	64.1	58.74	57.84471	0.017024174
984	64.15	59.103	57.75845	0.016919615
985	64.2	61.089	57.6877	0.016369559
986	64.25	61.802	57.62999	0.016180706
987	64.3	55.885	57.58336	0.017893889
988	64.35	59.908	57.54624	0.016692261
989	64.4	58.604	57.51736	0.017063682
990	64.45	61.263	57.49567	0.016323066
991	64.5	58.107	57.48033	0.017209631
992	64.55	63.502	57.47062	0.015747536
993	64.6	61.074	57.46597	0.01637358
994	64.65	55.908	57.4659	0.017886528
995	64.7	58.704	57.47	0.017034614
996	64.75	60.027	57.47793	0.01665917
997	64.8	61.536	57.48943	0.01625065
998	64.85	61.906	57.50425	0.016153523
999	64.9	59.367	57.52221	0.016844375
1000	64.95	59.854	57.5431	0.016707321
1001	65	58.643	57.56569	0.017052334
1002	65.05	62.028	57.59133	0.016121751
1003	65.1	63.873	57.6238	0.015656068
1004	65.15	58.106	57.64129	0.017209927
1005	65.2	62.24	57.63111	0.016066838
1006	65.25	58.585	57.66851	0.017069216
1007	65.3	58.339	57.70844	0.017141192
1008	65.35	64.64	57.7509	0.015470297
1009	65.4	58.771	57.7959	0.017015195
1010	65.45	58.849	57.84348	0.016992642
1011	65.5	62.491	57.89368	0.016002304
1012	65.55	58.991	57.9466	0.016951738
1013	65.6	63.564	58.01801	0.015732175
1014	65.65	58.333	58.07648	0.017142955
1015	65.7	60.037	58.13783	0.016656395
1016	65.75	58.431	58.20216	0.017114203
1017	65.8	57.556	58.26958	0.017374383
1018	65.85	58.833	58.34021	0.016997263
1019	65.9	60.987	58.41418	0.016396937
1020	65.95	56.18	58.49164	0.017799929
1021	66	59.96	58.57372	0.016677785
1022	66.05	60.085	58.67655	0.016643089
1023	66.1	58.723	58.76561	0.017029103
1024	66.15	60.651	58.8589	0.016487774
1025	66.2	61.89	58.95666	0.016157699
1026	66.25	64.053	59.06559	0.015612071
1027	66.3	63.964	59.17325	0.015633794
1028	66.35	66.429	59.28602	0.015053666
1029	66.4	59.4	59.40439	0.016835017
1030	66.45	59.862	59.52872	0.016705088
1031	66.5	57.158	59.6594	0.017495364
1032	66.55	61.78	59.79684	0.016186468
1033	66.6	66.046	59.94151	0.015140962
1034	66.65	66.132	60.09391	0.015121273
1035	66.7	62.045	60.2546	0.016117334
1036	66.75	61.98	60.42417	0.016134237
1037	66.8	64.397	60.60331	0.015528674
1038	66.85	62.326	60.79274	0.016044668
1039	66.9	62.856	60.99327	0.01590938
1040	66.95	63.818	61.2058	0.01566956
1041	67	64.69	61.43131	0.01545834
1042	67.05	59.619	61.67092	0.016773176
1043	67.1	62.2	61.92583	0.01607717
1044	67.15	59.594	62.19741	0.016780213
1045	67.2	64.234	62.48719	0.015568079
1046	67.25	63.087	62.79685	0.015851126
1047	67.3	61.566	63.12832	0.016242731
1048	67.35	64.868	63.48374	0.015415922
1049	67.4	61.74	63.86554	0.016196955
1050	67.45	64.3	64.27647	0.0155521
1051	67.5	60.904	64.71965	0.016419283
1052	67.55	59.44	65.19864	0.016823688
1053	67.6	61.271	65.71753	0.016320935
1054	67.65	68.502	66.28098	0.014598114
1055	67.7	65.729	66.8944	0.015213985
1056	67.75	64.096	67.56405	0.015601598
1057	67.8	60.502	68.29719	0.016528379
1058	67.85	65.724	69.10233	0.015215142
1059	67.9	69.436	69.98948	0.014401751
1060	67.95	76.846	70.97047	0.013013039
1061	68	76.307	72.05935	0.013104958
1062	68.05	74.216	73.27294	0.013474183
1063	68.1	73.16	74.63153	0.013668671
1064	68.15	77.996	76.15972	0.01282117
1065	68.2	78.856	77.88763	0.012681343
1066	68.25	80.998	79.85241	0.012345984
1067	68.3	80.338	82.10038	0.01244741
1068	68.35	81.639	84.68998	0.012249048
1069	68.4	89.774	87.69627	0.011139083
1070	68.45	94.809	91.21877	0.010547522
1071	68.5	91.466	95.39722	0.010933024
1072	68.55	102.962	100.44687	0.009712321
1073	68.6	107.522	106.73847	0.009300422
1074	68.65	111.314	114.968	0.008983596
1075	68.7	121.181	126.47623	0.008252119
1076	68.75	141.322	143.75436	0.007076039
1077	68.8	167.27	171.05738	0.005978358
1078	68.85	209.574	214.81458	0.004771584
1079	68.9	268.353	283.2584	0.003726435
1080	68.95	365.312	384.63368	0.002737386
1081	69	489.678	523.75707	0.002042158
1082	69.05	644.744	697.45295	0.001551003
1083	69.1	839.086	889.79687	0.001191773
1084	69.15	1026.858	1068.30554	0.000973844
1085	69.2	1154.161	1186.18276	0.00086643
1086	69.25	1199.484	1203.03295	0.000833692
1087	69.3	1135.053	1118.99278	0.000881016
1088	69.35	1014.169	978.814	0.000986029
1089	69.4	869.109	838.71663	0.001150604
1090	69.45	763.818	741.73368	0.001309212
1091	69.5	740.835	712.68718	0.001349828
1092	69.55	791.277	758.34836	0.00126378
1093	69.6	908.622	867.58551	0.001100568
1094	69.65	1070.563	1011.27837	0.000934088
1095	69.7	1214.565	1142.93423	0.00082334
1096	69.75	1301.167	1206.94549	0.000768541
1097	69.8	1263.623	1166.0507	0.000791375
1098	69.85	1118.743	1030.16795	0.00089386
1099	69.9	883.021	844.52201	0.001132476
1100	69.95	664.966	654.22056	0.001503836
1101	70	467.179	487.77536	0.002140507
1102	70.05	341.993	357.66793	0.002924036
1103	70.1	247.294	264.76226	0.00404377
1104	70.15	194.939	203.05182	0.00512981
1105	70.2	154.336	164.02157	0.00647937
1106	70.25	130.223	139.73546	0.007679135
1107	70.3	108.694	124.26534	0.00920014
1108	70.35	94.846	113.86378	0.010543407
1109	70.4	83.676	106.28211	0.011950858
1110	70.45	81.683	100.42056	0.012242449
1111	70.5	77.322	95.68759	0.01293293
1112	70.55	69.633	91.76361	0.014361007
1113	70.6	73.026	88.45804	0.013693753
1114	70.65	68.169	85.6438	0.014669425
1115	70.7	73.908	83.22857	0.013530335
1116	70.75	68.983	81.14163	0.014496325
1117	70.8	66.923	79.32749	0.014942546
1118	70.85	62.08	77.7393	0.016108247
1119	70.9	66.781	76.34716	0.014974319
1120	70.95	70.557	75.12884	0.014172938
1121	71	69.327	74.05457	0.014424395
1122	71.05	67.816	73.10496	0.014745783
1123	71.1	67.677	72.26385	0.014776069
1124	71.15	66.523	71.51557	0.015032395
1125	71.2	64.67	70.85335	0.01546312
1126	71.25	69.047	70.27399	0.014482888
1127	71.3	70.401	69.76425	0.014204344
1128	71.35	64.128	69.31801	0.015593812
1129	71.4	68.602	68.93024	0.014576834
1130	71.45	66.438	68.59689	0.015051627
1131	71.5	68.418	68.31478	0.014616037
1132	71.55	70.902	68.08151	0.014103975
1133	71.6	68.402	67.89546	0.014619456
1134	71.65	64.676	67.75574	0.015461686
1135	71.7	66.457	67.66221	0.015047324
1136	71.75	69.365	67.61554	0.014416492
1137	71.8	67.817	67.61725	0.014745565
1138	71.85	67.15	67.66989	0.014892033
1139	71.9	64.303	67.77716	0.015551374
1140	71.95	66.051	67.94425	0.015139816
1141	72	66.652	68.17821	0.015003301
1142	72.05	66.308	68.48871	0.015081137
1143	72.1	67.392	68.88957	0.014838557
1144	72.15	67.877	69.40189	0.014732531
1145	72.2	68.914	70.06121	0.01451084
1146	72.25	71.966	70.93175	0.013895451
1147	72.3	71.348	72.13198	0.01401581
1148	72.35	75.07	73.87251	0.0133209
1149	72.4	77.413	76.49733	0.012917727
1150	72.45	76.539	80.50344	0.013065235
1151	72.5	81.196	86.49986	0.012315878
1152	72.55	93.7	95.07354	0.010672359
1153	72.6	107.978	106.56476	0.009261146
1154	72.65	123.872	120.78958	0.008072849
1155	72.7	136.398	136.73043	0.007331486
1156	72.75	153.683	152.26477	0.006506901
1157	72.8	162.973	164.52974	0.006135986
1158	72.85	163.056	171.80278	0.006132862
1159	72.9	171.631	175.23724	0.005826453
1160	72.95	180.285	177.45954	0.005546773
1161	73	180.196	179.97068	0.005549513
1162	73.05	180.834	182.57928	0.005529934
1163	73.1	176.345	185.17594	0.005670702
1164	73.15	182.36	190.04011	0.005483659
1165	73.2	195.069	201.25827	0.005126391
1166	73.25	213.972	221.93051	0.004673509
1167	73.3	249.705	252.06892	0.004004726
1168	73.35	277.359	287.61201	0.003605436
1169	73.4	314.771	319.86836	0.003176913
1170	73.45	334.018	337.12929	0.002993851
1171	73.5	341.9	331.66792	0.002924832
1172	73.55	332.355	307.18707	0.003008831
1173	73.6	292.925	275.46409	0.003413843
1174	73.65	266.516	247.37546	0.00375212
1175	73.7	246.648	228.91133	0.004054361
1176	73.75	245.556	221.09654	0.004072391
1177	73.8	251.304	220.56794	0.003979244
1178	73.85	243.703	220.80218	0.004103355
1179	73.9	245.164	215.44127	0.004078902
1180	73.95	227.191	203.13469	0.004401583
1181	74	210.455	188.10369	0.00475161
1182	74.05	195.109	176.10559	0.00512534
1183	74.1	176.314	171.70578	0.005671699
1184	74.15	178.599	177.80017	0.005599135
1185	74.2	194.916	195.61979	0.005130415
1186	74.25	227.237	224.65265	0.004400692
1187	74.3	258.293	262.37507	0.003871572
1188	74.35	288.862	303.85243	0.003461861
1189	74.4	317.235	342.94339	0.003152237
1190	74.45	361.262	376.59679	0.002768074
1191	74.5	405.355	406.78231	0.002466973
1192	74.55	459.264	434.64802	0.002177397
1193	74.6	493.026	454.04427	0.002028291
1194	74.65	516.199	452.44803	0.001937237
1195	74.7	493.845	421.45435	0.002024927
1196	74.75	428.012	366.71376	0.002336383
1197	74.8	335.94	302.69989	0.002976722
1198	74.85	260.969	241.80634	0.003831873
1199	74.9	199.595	190.82117	0.005010146
1200	74.95	156.303	152.00686	0.00639783
1201	75	122.796	124.6686	0.008143588
1202	75.05	103.279	106.5375	0.00968251
1203	75.1	93.775	94.93087	0.010663823
1204	75.15	81.522	87.51454	0.012266627
1205	75.2	81.517	82.60842	0.01226738
1206	75.25	82.367	79.15996	0.012140785
1207	75.3	76.272	76.57282	0.013110971
1208	75.35	71.053	74.5279	0.014074001
1209	75.4	64.14	72.8545	0.015590895
1210	75.45	68.892	71.45549	0.014515473
1211	75.5	66.632	70.26975	0.015007804
1212	75.55	63.856	69.25484	0.015660236
1213	75.6	61.034	68.37931	0.01638431
1214	75.65	66.756	67.61893	0.014979927
1215	75.7	67.421	66.95464	0.014832174
1216	75.75	67.551	66.37123	0.01480363
1217	75.8	64.749	65.85645	0.015444254
1218	75.85	66.147	65.40035	0.015117844
1219	75.9	68.069	64.99475	0.014690975
1220	75.95	64.31	64.6329	0.015549681
1221	76	66.499	64.30891	0.01503782
1222	76.05	65.493	64.01769	0.015268807
1223	76.1	61.464	63.75417	0.016269686
1224	76.15	63.587	63.51771	0.015726485
1225	76.2	64.365	63.30666	0.015536394
1226	76.25	67.872	63.11656	0.014733616
1227	76.3	69.067	62.94536	0.014478695
1228	76.35	70.51	62.79129	0.014182385
1229	76.4	66.768	62.65272	0.014977235
1230	76.45	69.969	62.52788	0.014292044
1231	76.5	67.292	62.41489	0.014860608
1232	76.55	65.532	62.31029	0.01525972
1233	76.6	68.64	62.2225	0.014568765
1234	76.65	69.346	62.14448	0.014420442
1235	76.7	71.726	62.07488	0.013941946
1236	76.75	71.096	62.01797	0.014065489
1237	76.8	72.968	61.97026	0.013704638
1238	76.85	73.593	61.93144	0.013588249
1239	76.9	70.158	61.90128	0.014253542
1240	76.95	68.787	61.87961	0.014537631
1241	77	66.199	61.86635	0.015105968
1242	77.05	65.158	61.86151	0.01534731
1243	77.1	62.169	61.86514	0.016085187
1244	77.15	64.896	61.87739	0.01540927
1245	77.2	68.013	61.8985	0.014703071
1246	77.25	68.544	61.9447	0.014589169
1247	77.3	71.108	61.98474	0.014063115
1248	77.35	64.212	62.03489	0.015573413
1249	77.4	66.164	62.09587	0.015113959
1250	77.45	61.781	62.1685	0.016186206
1251	77.5	62.195	62.25376	0.016078463
1252	77.55	67.225	62.35285	0.014875418
1253	77.6	63.739	62.46719	0.015688982
1254	77.65	65.128	62.5985	0.015354379
1255	77.7	61.201	62.75862	0.016339602
1256	77.75	63.457	62.93059	0.015758703
1257	77.8	61.882	63.127	0.016159788
1258	77.85	62.733	63.35157	0.015940574
1259	77.9	60.823	63.60875	0.016441149
1260	77.95	68.884	63.91136	0.014517159
1261	78	66.066	64.25541	0.015136379
1262	78.05	64.384	64.65441	0.015531809
1263	78.1	65.729	65.11276	0.015213985
1264	78.15	66.464	65.64794	0.015045739
1265	78.2	67.632	66.27856	0.0147859
1266	78.25	68.808	67.02876	0.014533194
1267	78.3	73.441	67.93338	0.013616372
1268	78.35	75.912	69.04772	0.013173148
1269	78.4	76.595	70.46829	0.013055682
1270	78.45	80.534	72.37362	0.012417116
1271	78.5	78.709	75.09323	0.012705027
1272	78.55	87.441	79.20156	0.011436283
1273	78.6	86.635	85.60389	0.011542679
1274	78.65	104.257	95.5393	0.009591682
1275	78.7	118.974	110.40072	0.008405198
1276	78.75	136.899	131.3064	0.007304655
1277	78.8	164.561	158.4521	0.006076774
1278	78.85	193.302	190.3229	0.005173252
1279	78.9	216.696	222.76444	0.00461476
1280	78.95	230.802	248.35169	0.004332718
1281	79	241.929	258.646	0.004133444
1282	79.05	241.803	251.06886	0.004135598
1283	79.1	225.649	232.17467	0.004431662
1284	79.15	208.613	211.51799	0.004793565
1285	79.2	198.242	195.55898	0.00504434
1286	79.25	193.604	186.41644	0.005165183
1287	79.3	179.49	182.33198	0.005571341
1288	79.35	173.175	178.56335	0.005774506
1289	79.4	163.737	170.11693	0.006107355
1290	79.45	147.528	155.71495	0.006778374
1291	79.5	137.003	138.06898	0.00729911
1292	79.55	114.711	120.57442	0.00871756
1293	79.6	108.799	105.38312	0.009191261
1294	79.65	99.999	93.38546	0.0100001
1295	79.7	87.585	84.6033	0.01141748
1296	79.75	84.359	78.54542	0.0118541
1297	79.8	80.078	74.51937	0.012487824
1298	79.85	77.922	71.86428	0.012833346
1299	79.9	74.987	70.07009	0.013335645
1300	79.95	67.786	68.79765	0.014752309
1301	80	73.633	67.84699	0.013580867
1302	80.05	69.279	67.09987	0.014434388
1303	80.1	73.149	66.49585	0.013670727
1304	80.15	68.664	65.99883	0.014563672
1305	80.2	67.486	65.5859	0.014817888
1306	80.25	71.263	65.24115	0.014032527
1307	80.3	70.34	64.9528	0.014216662
1308	80.35	68.269	64.71151	0.014647937
1309	80.4	67.124	64.5092	0.014897801
1310	80.45	68.642	64.34329	0.01456834
1311	80.5	68.918	64.20886	0.014509997
1312	80.55	65.977	64.11136	0.015156797
1313	80.6	67.916	64.03203	0.014724071
1314	80.65	64.021	63.96864	0.015619875
1315	80.7	67.294	63.92484	0.014860166
1316	80.75	69.644	63.89913	0.014358739
1317	80.8	65.105	63.89036	0.015359803
1318	80.85	62.748	63.89766	0.015936763
1319	80.9	63.313	63.9204	0.015794545
1320	80.95	65.494	63.95817	0.015268574
1321	81	62.894	64.01076	0.015899768
1322	81.05	68.02	64.07817	0.014701558
1323	81.1	63.663	64.16056	0.015707711
1324	81.15	62.544	64.25829	0.015988744
1325	81.2	70.411	64.37192	0.014202326
1326	81.25	62.852	64.5022	0.015910393
1327	81.3	66.316	64.6501	0.015079317
1328	81.35	65.344	64.81685	0.015303624
1329	81.4	65.587	65.00392	0.015246924
1330	81.45	65.04	65.21313	0.015375154
1331	81.5	64.877	65.44664	0.015413783
1332	81.55	66.87	65.70706	0.014954389
1333	81.6	67.505	65.99751	0.014813718
1334	81.65	68.653	66.32173	0.014566006
1335	81.7	66.553	66.68423	0.015025619
1336	81.75	70.685	67.09047	0.014147273
1337	81.8	65.742	67.54707	0.015210976
1338	81.85	66.795	68.06214	0.01497118
1339	81.9	64.957	68.64568	0.0153948
1340	81.95	69.773	69.31014	0.014332192
1341	82	68.136	70.07118	0.014676529
1342	82.05	74.531	70.94887	0.013417236
1343	82.1	73.803	71.96963	0.013549585
1344	82.15	70.706	73.17004	0.014143071
1345	82.2	73.379	74.60481	0.013627877
1346	82.25	75.254	76.36381	0.01328833
1347	82.3	79.754	78.60628	0.012538556
1348	82.35	78.919	81.62138	0.01267122
1349	82.4	84.64	85.91764	0.011814745
1350	82.45	86.177	92.32099	0.011604024
1351	82.5	92.399	102.02176	0.010822628
1352	82.55	110.042	116.47502	0.009087439
1353	82.6	129.893	137.06499	0.007698644
1354	82.65	156.793	164.5165	0.006377836
1355	82.7	197.439	198.10702	0.005064855
1356	82.75	240.529	234.66614	0.004157503
1357	82.8	278.147	267.41928	0.003595221
1358	82.85	322.627	286.42185	0.003099555
1359	82.9	312.518	284.40588	0.003199816
1360	82.95	296.731	264.21015	0.003370056
1361	83	266.228	236.30775	0.003756179
1362	83.05	240.328	210.8236	0.00416098
1363	83.1	227.001	194.46755	0.004405267
1364	83.15	215.555	191.07369	0.004639187
1365	83.2	225.646	202.2598	0.00443172
1366	83.25	238.618	227.53494	0.004190799
1367	83.3	272.939	263.98879	0.003663822
1368	83.35	312.959	305.47928	0.003195307
1369	83.4	327.287	341.58069	0.003055422
1370	83.45	339.208	359.34849	0.002948044
1371	83.5	340.475	352.05676	0.002937073
1372	83.55	341.31	326.60503	0.002929888
1373	83.6	324.649	297.4512	0.00308025
1374	83.65	302.65	277.01653	0.003304147
1375	83.7	301.904	272.76128	0.003312311
1376	83.75	315.984	287.53857	0.003164717
1377	83.8	333.529	319.81494	0.00299824
1378	83.85	360.022	363.22338	0.002777608
1379	83.9	388.505	405.69672	0.002573969
1380	83.95	409.369	431.24603	0.002442784
1381	84	419.007	429.49878	0.002386595
1382	84.05	390.903	404.95639	0.002558179
1383	84.1	356.265	370.13857	0.002806899
1384	84.15	335.876	333.46555	0.002977289
1385	84.2	299.655	296.35349	0.003337171
1386	84.25	266.509	257.77744	0.003752218
1387	84.3	231.969	219.29316	0.004310921
1388	84.35	197.803	184.35684	0.005055535
1389	84.4	169.757	155.25265	0.005890773
1390	84.45	152.588	132.48747	0.006553595
1391	84.5	136.483	115.5226	0.00732692
1392	84.55	118.589	103.35548	0.008432485
1393	84.6	109.34	94.85082	0.009145784
1394	84.65	96.691	88.94651	0.010342224
1395	84.7	92.973	84.78188	0.010755811
1396	84.75	84.942	81.73885	0.011772739
1397	84.8	80.353	79.41538	0.012445086
1398	84.85	77.093	77.5677	0.012971346
1399	84.9	75.018	76.05249	0.013330134
1400	84.95	72.064	74.7841	0.013876554
1401	85	71.093	73.70819	0.014066082
1402	85.05	67.906	72.78752	0.014726239
1403	85.1	66.083	71.99636	0.015132485
1404	85.15	68.908	71.31156	0.014512103
1405	85.2	68.137	70.71675	0.014676314
1406	85.25	64.356	70.199	0.015538567
1407	85.3	64.956	69.7477	0.015395037
1408	85.35	66.571	69.35414	0.015021556
1409	85.4	70.267	69.0112	0.014231432
1410	85.45	68.632	68.71301	0.014570463
1411	85.5	67.872	68.45466	0.014733616
1412	85.55	71.424	68.23212	0.014000896
1413	85.6	65.398	68.04201	0.015290987
1414	85.65	61.843	67.88154	0.016169979
1415	85.7	65.578	67.74843	0.015249016
1416	85.75	64.863	67.64075	0.01541711
1417	85.8	70.913	67.55699	0.014101787
1418	85.85	61.981	67.49594	0.016133977
1419	85.9	63.09	67.45669	0.015850372
1420	85.95	70.012	67.43859	0.014283266
1421	86	66.996	67.44123	0.014926264
1422	86.05	69.069	67.46446	0.014478275
1423	86.1	64.799	67.50836	0.015432337
1424	86.15	64.93	67.57324	0.015401201
1425	86.2	62.954	67.65966	0.015884614
1426	86.25	62.196	67.76846	0.016078204
1427	86.3	69.941	67.90077	0.014297765
1428	86.35	71.154	68.06168	0.014054024
1429	86.4	66.673	68.24562	0.014998575
1430	86.45	68.287	68.44539	0.014644076
1431	86.5	70.649	68.65025	0.014154482
1432	86.55	68.289	68.93035	0.014643647
1433	86.6	65.057	69.24953	0.015371136
1434	86.65	71.1	69.61269	0.014064698
1435	86.7	69.333	70.02584	0.014423146
1436	86.75	71.754	70.50271	0.013936505
1437	86.8	68.614	71.04295	0.014574285
1438	86.85	70.001	71.6578	0.01428551
1439	86.9	74.723	72.36359	0.01338276
1440	86.95	68.877	73.17727	0.014518635
1441	87	73.988	74.1171	0.013515705
1442	87.05	72.96	75.1958	0.01370614
1443	87.1	70.151	76.51264	0.014254964
1444	87.15	67.519	78.10151	0.014810646
1445	87.2	69.116	80.06514	0.01446843
1446	87.25	73.091	82.59276	0.013681575
1447	87.3	73.273	86.01732	0.013647592
1448	87.35	81.453	90.9052	0.012277019
1449	87.4	86.303	98.14452	0.011587083
1450	87.45	89.716	108.97152	0.011146284
1451	87.5	109.31	124.84724	0.009148294
1452	87.55	130.662	147.11169	0.007653335
1453	87.6	170.352	176.40699	0.005870198
1454	87.65	225.098	211.89438	0.004442509
1455	87.7	275.308	250.17894	0.003632295
1456	87.75	333.511	283.98754	0.002998402
1457	87.8	342.969	302.61665	0.002915715
1458	87.85	337.342	298.26001	0.002964351
1459	87.9	297.738	273.74593	0.003358658
1460	87.95	239.152	239.53604	0.004181441
1461	88	205.731	205.12064	0.004860716
1462	88.05	164.665	175.86599	0.006072936
1463	88.1	153.068	153.91481	0.006533044
1464	88.15	141.6	139.48456	0.007062147
1465	88.2	145.526	131.84311	0.006871624
1466	88.25	148.887	130.10879	0.006716503
1467	88.3	145.253	133.91109	0.006884539
1468	88.35	152.347	143.88315	0.006563963
1469	88.4	174.479	161.95924	0.005731349
1470	88.45	192.346	191.38033	0.005198964
1471	88.5	229.348	236.17143	0.004360186
1472	88.55	285.549	300.07693	0.003502026
1473	88.6	378.56	384.81329	0.002641589
1474	88.65	507.778	487.76885	0.001969365
1475	88.7	660.833	598.87585	0.001513242
1476	88.75	805.437	696.7758	0.001241562
1477	88.8	889.02	749.98696	0.001124834
1478	88.85	851.196	734.88112	0.001174818
1479	88.9	741.556	658.43811	0.001348516
1480	88.95	575.632	550.8195	0.001737221
1481	89	427.578	440.28156	0.002338755
1482	89.05	305.304	343.08438	0.003275424
1483	89.1	234.097	265.71625	0.004271734
1484	89.15	175.693	208.61696	0.005691746
1485	89.2	144.119	168.89186	0.00693871
1486	89.25	121.707	142.33444	0.008216454
1487	89.3	113.313	124.82654	0.008825113
1488	89.35	93.374	113.11173	0.010709619
1489	89.4	89.597	104.95126	0.011161088
1490	89.45	89.258	98.96612	0.011203478
1491	89.5	72.892	94.34869	0.013718927
1492	89.55	82.459	90.65283	0.012127239
1493	89.6	70.675	87.62261	0.014149275
1494	89.65	78.548	85.09788	0.012731069
1495	89.7	71.266	82.9675	0.014031937
1496	89.75	72.717	81.15637	0.013751942
1497	89.8	69.444	79.60701	0.014400092
1498	89.85	71.483	78.27387	0.01398934
1499	89.9	69.223	77.12328	0.014446066
1500	89.95	61.939	76.12429	0.016144917
1501	90	75.643	75.25485	0.013219994
1502	90.05	63.133	74.49808	0.015839577
1503	90.1	70.182	73.84053	0.014248668
1504	90.15	68.846	73.26752	0.014525172
1505	90.2	72.338	72.76792	0.013823993
1506	90.25	66.448	72.33327	0.015049362
1507	90.3	69.45	71.96206	0.014398848
1508	90.35	66.314	71.64595	0.015079772
1509	90.4	73.626	71.3804	0.013582158
1510	90.45	69.564	71.15413	0.014375252
1511	90.5	77.75	70.97108	0.012861736
1512	90.55	70.266	70.82647	0.014231634
1513	90.6	71.691	70.71961	0.013948752
1514	90.65	67.811	70.65166	0.01474687
1515	90.7	75.543	70.62327	0.013237494
1516	90.75	77.263	70.63083	0.012942806
1517	90.8	71.836	70.67227	0.013920597
1518	90.85	71.562	70.75615	0.013973897
1519	90.9	72.904	70.89021	0.013716668
1520	90.95	73.246	71.07253	0.013652623
1521	91	70.877	71.33967	0.014108949
1522	91.05	69.94	71.65755	0.01429797
1523	91.1	70.038	72.03087	0.014277963
1524	91.15	75.451	72.47662	0.013253635
1525	91.2	73.842	73.00854	0.013542428
1526	91.25	72.784	73.6491	0.013739283
1527	91.3	73.181	74.42585	0.013664749
1528	91.35	76.295	75.36966	0.013107019
1529	91.4	78.235	76.53127	0.012782003
1530	91.45	75.414	77.99324	0.013260137
1531	91.5	83.04	79.89675	0.012042389
1532	91.55	84.126	82.48501	0.011886932
1533	91.6	90.41	86.16152	0.011060723
1534	91.65	99.129	91.54668	0.010087865
1535	91.7	112.338	99.49476	0.008901707
1536	91.75	117.608	111.01463	0.008502823
1537	91.8	140.593	127.08817	0.00711273
1538	91.85	159.586	148.26969	0.006266214
1539	91.9	168.978	174.22376	0.00591793
1540	91.95	194.809	203.01376	0.005133233
1541	92	206.281	230.13075	0.004847756
1542	92.05	215.302	248.29907	0.004644639
1543	92.1	216.036	250.95094	0.004628858
1544	92.15	210.579	238.24682	0.004748812
1545	92.2	199.154	217.13367	0.00502124
1546	92.25	189.747	195.19502	0.005270176
1547	92.3	182.84	177.03675	0.005469263
1548	92.35	174.689	164.34667	0.005724459
1549	92.4	168.684	156.75295	0.005928245
1550	92.45	165.228	152.8085	0.006052243
1551	92.5	171.605	151.53571	0.005827336
1552	92.55	172.784	153.48032	0.005787573
1553	92.6	173.133	159.93522	0.005775906
1554	92.65	176.322	171.5719	0.005671442
1555	92.7	192.994	187.6682	0.005181508
1556	92.75	203.67	205.51798	0.004909903
1557	92.8	211.658	219.89754	0.004724603
1558	92.85	208.042	224.29751	0.004806722
1559	92.9	210.823	215.46571	0.004743315
1560	92.95	191.389	196.51374	0.005224961
1561	93	164.269	173.65545	0.006087576
1562	93.05	150.02	151.84033	0.006665778
1563	93.1	136.682	133.7576	0.007316252
1564	93.15	122.813	120.52981	0.00814246
1565	93.2	108.991	112.4135	0.00917507
1566	93.25	110.327	109.23039	0.009063964
1567	93.3	108.174	110.64338	0.009244366
1568	93.35	112.111	116.24513	0.008919731
1569	93.4	120.072	125.4607	0.008328336
1570	93.45	124.77	137.28172	0.008014747
1571	93.5	140.488	149.81639	0.007118046
1572	93.55	146.259	159.84389	0.006837186
1573	93.6	142.086	163.40901	0.007037991
1574	93.65	137.519	158.44151	0.007271722
1575	93.7	132.587	146.75376	0.007542218
1576	93.75	117.154	132.2178	0.008535773
1577	93.8	107.069	117.93024	0.009339772
1578	93.85	94.485	105.5485	0.010583691
1579	93.9	90.55	95.67704	0.011043622
1580	93.95	84.54	88.28954	0.01182872
1581	94	79.297	83.01918	0.012610818
1582	94.05	76.99	79.36966	0.0129887
1583	94.1	77.498	76.86115	0.012903559
1584	94.15	74.796	75.10801	0.013369699
1585	94.2	71.283	73.83816	0.01402859
1586	94.25	64.635	72.87728	0.015471494
1587	94.3	67.972	72.12059	0.01471194
1588	94.35	65.785	71.50676	0.015201034
1589	94.4	66.066	70.99923	0.015136379
1590	94.45	66.224	70.57448	0.015100266
1591	94.5	69.604	70.21675	0.01436699
1592	94.55	68.997	69.91462	0.014493384
1593	94.6	63.243	69.65937	0.015812027
1594	94.65	67.636	69.4442	0.014785026
1595	94.7	74.312	69.26372	0.013456777
1596	94.75	73.204	69.11364	0.013660456
1597	94.8	72.754	68.99049	0.013744949
1598	94.85	71.697	68.89149	0.013947585
1599	94.9	69.998	68.81439	0.014286122
1600	94.95	72.503	68.75742	0.013792533
1601	95	71.76	68.71915	0.01393534
1602	95.05	73.965	68.69848	0.013519908
1603	95.1	70.547	68.6946	0.014174947
1604	95.15	71.343	68.7069	0.014016792
1605	95.2	73.452	68.735	0.013614333
1606	95.25	65.66	68.77873	0.015229973
1607	95.3	64.755	68.83811	0.015442823
1608	95.35	66.402	68.91335	0.015059787
1609	95.4	73.23	69.00484	0.013655606
1610	95.45	73.403	69.11316	0.013623421
1611	95.5	66.065	69.23909	0.015136608
1612	95.55	67.69	69.38364	0.014773231
1613	95.6	69.114	69.54807	0.014468849
1614	95.65	67.246	69.73387	0.014870773
1615	95.7	67.527	69.94289	0.014808891
1616	95.75	72.12	70.17731	0.013865779
1617	95.8	68.976	70.43973	0.014497796
1618	95.85	64.834	70.73327	0.015424006
1619	95.9	70.055	71.06161	0.014274499
1620	95.95	67.269	71.42917	0.014865689
1621	96	67.401	71.84124	0.014836575
1622	96.05	69.296	72.3042	0.014430847
1623	96.1	71.268	72.82575	0.014031543
1624	96.15	71.069	73.41526	0.014070833
1625	96.2	73.236	74.08424	0.013654487
1626	96.25	73.242	74.84691	0.013653368
1627	96.3	73.106	75.72109	0.013678768
1628	96.35	73.787	76.72952	0.013552523
1629	96.4	73.907	77.902	0.013530518
1630	96.45	76.874	79.27947	0.013008299
1631	96.5	80.566	80.92115	0.012412184
1632	96.55	83.296	82.91147	0.012005378
1633	96.6	88.214	85.42311	0.011336069
1634	96.65	86.094	88.70024	0.011615211
1635	96.7	92.614	93.1553	0.010797504
1636	96.75	96.702	99.41862	0.010341048
1637	96.8	106.464	108.37159	0.009392846
1638	96.85	129.55	121.10792	0.007719027
1639	96.9	151.502	138.77697	0.006600573
1640	96.95	178.066	162.28402	0.005615895
1641	97	212.416	191.8583	0.004707743
1642	97.05	246.676	226.42697	0.004053901
1643	97.1	276.623	262.67001	0.003615028
1644	97.15	302.601	293.98349	0.003304682
1645	97.2	303.038	311.27149	0.003299916
1646	97.25	284.063	308.29238	0.003520346
1647	97.3	264.558	287.47924	0.003779889
1648	97.35	234.807	257.78181	0.004258817
1649	97.4	210.957	227.98744	0.004740303
1650	97.45	186.097	203.70284	0.005373542
1651	97.5	183.003	187.79555	0.005464391
1652	97.55	177.754	181.36949	0.005625752
1653	97.6	185.989	184.34382	0.005376662
1654	97.65	196.487	195.7085	0.005089395
1655	97.7	216.875	213.50378	0.004610951
1656	97.75	231.899	234.45966	0.004312222
1657	97.8	245.862	253.69004	0.004067322
1658	97.85	250.854	266.1567	0.003986383
1659	97.9	250.008	270.48859	0.003999872
1660	97.95	256.256	270.72554	0.003902348
1661	98	265.788	272.96796	0.003762397
1662	98.05	288.883	281.32872	0.003461609
1663	98.1	307.876	296.38061	0.003248061
1664	98.15	326.799	314.79517	0.003059985
1665	98.2	353.718	329.81548	0.002827111
1666	98.25	348.262	334.22915	0.002871401
1667	98.3	331.055	324.64109	0.003020646
1668	98.35	318.806	302.19647	0.003136704
1669	98.4	276.585	270.65345	0.003615525
1670	98.45	242.298	235.21786	0.004127149
1671	98.5	209.317	200.93381	0.004777443
1672	98.55	168.801	171.05198	0.005924136
1673	98.6	138.257	146.84057	0.007232907
1674	98.65	116.163	128.23585	0.008608593
1675	98.7	108.893	114.48324	0.009183327
1676	98.75	93.53	104.57464	0.010691757
1677	98.8	94.696	97.50729	0.010560108
1678	98.85	87.498	92.42635	0.011428833
1679	98.9	75.57	88.69195	0.013232764
1680	98.95	82.529	85.85858	0.012116953
1681	99	76.324	83.63474	0.013102039
1682	99.05	75.456	81.83673	0.013252757
1683	99.1	72.56	80.34984	0.013781698
1684	99.15	76.203	79.10077	0.013122843
1685	99.2	75.516	78.04056	0.013242227
1686	99.25	64.382	77.13452	0.015532292
1687	99.3	66.819	76.35687	0.014965803
1688	99.35	70.256	75.68779	0.01423366
1689	99.4	69.691	75.11165	0.014349055
1690	99.45	69.67	74.61602	0.01435338
1691	99.5	68.313	74.1909	0.014638502
1692	99.55	67.19	73.82833	0.014883167
1693	99.6	65.086	73.52187	0.015364287
1694	99.65	72.6	73.26641	0.013774105
1695	99.7	71.777	73.05804	0.01393204
1696	99.75	74.004	72.89375	0.013512783
1697	99.8	72.931	72.77147	0.01371159
1698	99.85	69.072	72.68997	0.014477647
1699	99.9	63.347	72.64883	0.015786067
1700	99.95	66.932	72.64846	0.014940537
1701	100	71.473	72.69017	0.013991297
1702	100.05	67.436	72.77631	0.014828875
1703	100.1	73.222	72.91056	0.013657098
1704	100.15	70.564	73.09839	0.014171532
1705	100.2	69.003	73.34798	0.014492124
1706	100.25	70.404	73.67199	0.014203738
1707	100.3	72.366	74.09054	0.013818644
1708	100.35	68.386	74.63616	0.014622876
1709	100.4	69.077	75.36062	0.014476599
1710	100.45	72.885	76.34298	0.013720244
1711	100.5	72.16	77.69605	0.013858093
1712	100.55	75.204	79.56654	0.013297165
1713	100.6	79.108	82.1231	0.012640947
1714	100.65	80.883	85.52763	0.012363537
1715	100.7	78.744	89.87928	0.01269938
1716	100.75	87.709	95.1945	0.011401339
1717	100.8	95.569	101.2418	0.010463644
1718	100.85	100.88	107.4472	0.009912768
1719	100.9	100.465	112.75695	0.009953715
1720	100.95	103.671	115.84487	0.009645899
1721	101	103.02	115.93053	0.009706853
1722	101.05	105.186	113.49752	0.009506969
1723	101.1	100.584	109.90294	0.009941939
1724	101.15	98.133	106.47735	0.010190252
1725	101.2	96.252	104.14305	0.010389395
1726	101.25	98.862	103.51283	0.01011511
1727	101.3	100.63	105.09085	0.009937394
1728	101.35	100.006	109.41289	0.0099994
1729	101.4	112.84	117.19505	0.008862106
1730	101.45	129.598	129.2393	0.007716168
1731	101.5	143.104	146.40515	0.006987925
1732	101.55	154.766	169.33429	0.006461367
1733	101.6	184.854	198.07292	0.005409675
1734	101.65	219.628	231.57572	0.004553154
1735	101.7	260.663	267.13759	0.003836371
1736	101.75	291.65	299.97949	0.003428767
1737	101.8	311.346	323.29699	0.003211861
1738	101.85	323.866	329.96612	0.003087697
1739	101.9	310.035	316.93399	0.003225442
1740	101.95	292.918	288.24838	0.003413925
1741	102	238.673	252.0303	0.004189833
1742	102.05	199.057	215.39663	0.005023687
1743	102.1	172.139	182.55789	0.005809259
1744	102.15	144.812	155.31283	0.006905505
1745	102.2	126.832	133.95614	0.007884446
1746	102.25	114.279	117.95823	0.008750514
1747	102.3	98.924	106.36517	0.01010877
1748	102.35	89.283	98.12797	0.01120034
1749	102.4	82.191	92.28251	0.012166782
1750	102.45	86.772	88.07239	0.011524455
1751	102.5	78.8	84.95249	0.012690355
1752	102.55	79.998	82.55779	0.012500313
1753	102.6	78.668	80.65618	0.012711649
1754	102.65	75.112	79.10334	0.013313452
1755	102.7	78.04	77.80884	0.012813942
1756	102.75	73.978	76.7138	0.013517532
1757	102.8	74.423	75.77779	0.013436706
1758	102.85	70.496	74.9714	0.014185202
1759	102.9	70.738	74.27228	0.014136673
1760	102.95	69.965	73.66294	0.014292861
1761	103	69.103	73.12937	0.014471152
1762	103.05	73.619	72.66024	0.01358345
1763	103.1	66.983	72.24627	0.014929161
1764	103.15	69.987	71.87996	0.014288368
1765	103.2	72.607	71.55482	0.013772777
1766	103.25	72.056	71.26556	0.013878095
1767	103.3	68.299	71.00774	0.014641503
1768	103.35	67.398	70.77762	0.014837236
1769	103.4	72.97	70.57202	0.013704262
1770	103.45	69.897	70.38825	0.014306766
1771	103.5	72.189	70.22398	0.013852526
1772	103.55	69.863	70.07725	0.014313728
1773	103.6	68.882	69.94634	0.014517581
1774	103.65	65.816	69.82977	0.015193874
1775	103.7	69.448	69.72627	0.014399263
1776	103.75	73.746	69.63473	0.013560057
1777	103.8	73.115	69.5542	0.013677084
1778	103.85	69.166	69.48384	0.014457971
1779	103.9	65.965	69.42293	0.015159554
1780	103.95	66.168	69.37085	0.015113046
1781	104	73.503	69.32705	0.013604887
1782	104.05	73.223	69.29106	0.013656911
1783	104.1	70.525	69.26247	0.014179369
1784	104.15	70.521	69.24094	0.014180173
1785	104.2	66.616	69.22618	0.015011409
1786	104.25	67.002	69.21795	0.014924928
1787	104.3	67.82	69.21607	0.014744913
1788	104.35	72.439	69.22037	0.013804718
1789	104.4	67.711	69.23075	0.014768649
1790	104.45	67.716	69.24713	0.014767559
1791	104.5	68.791	69.26949	0.014536785
1792	104.55	69.57	69.29781	0.014374012
1793	104.6	65.307	69.33212	0.015312294
1794	104.65	68.884	69.37251	0.014517159
1795	104.7	69.481	69.41907	0.014392424
1796	104.75	71.957	69.47194	0.013897189
1797	104.8	67.845	69.53131	0.01473948
1798	104.85	65.079	69.5974	0.01536594
1799	104.9	71.465	69.67045	0.013992864
1800	104.95	71.446	69.75078	0.013996585
1801	105	73.827	69.83874	0.01354518
1802	105.05	72.961	69.93474	0.013705952
1803	105.1	73.132	70.03924	0.013673905
1804	105.15	71.99	70.15277	0.013890818
1805	105.2	71.01	70.27594	0.014082524
1806	105.25	72.396	70.40941	0.013812918
1807	105.3	73.917	70.55396	0.013528688
1808	105.35	74.559	70.71046	0.013412197
1809	105.4	70.884	70.87988	0.014107556
1810	105.45	64.537	71.06334	0.015494987
1811	105.5	63.134	71.26209	0.015839326
1812	105.55	67.179	71.47756	0.014885604
1813	105.6	68.649	71.71138	0.014566855
1814	105.65	74.066	71.96538	0.013501472
1815	105.7	65.708	72.24168	0.015218847
1816	105.75	72.1	72.54268	0.013869626
1817	105.8	77.155	72.87117	0.012960923
1818	105.85	75.106	73.23033	0.013314515
1819	105.9	69.228	73.62385	0.014445022
1820	105.95	73.627	74.05602	0.013581974
1821	106	77.652	74.53181	0.012877968
1822	106.05	75.086	75.05708	0.013318062
1823	106.1	73.71	75.63867	0.01356668
1824	106.15	73.86	76.27025	0.013539128
1825	106.2	73.457	76.99038	0.013613406
1826	106.25	78.795	77.79603	0.012691161
1827	106.3	80.184	78.701	0.012471316
1828	106.35	84.685	79.72198	0.011808467
1829	106.4	88.477	80.87937	0.011302372
1830	106.45	86.159	82.19843	0.011606449
1831	106.5	96.392	83.71108	0.010374305
1832	106.55	93.662	85.45878	0.010676689
1833	106.6	92.633	87.49767	0.010795289
1834	106.65	104.381	89.90744	0.009580288
1835	106.7	102.562	92.80651	0.0097502
1836	106.75	114.075	96.37656	0.008766163
1837	106.8	120.696	100.89899	0.008285279
1838	106.85	133.084	106.80309	0.007514051
1839	106.9	139.925	114.71947	0.007146686
1840	106.95	154.165	125.52318	0.006486557
1841	107	174.116	140.3404	0.005743298
1842	107.05	193.215	160.48743	0.005175582
1843	107.1	221.505	187.31515	0.004514571
1844	107.15	246.168	221.94656	0.004062266
1845	107.2	276.365	264.90358	0.003618403
1846	107.25	317.114	315.59136	0.00315344
1847	107.3	347.651	371.52937	0.002876448
1848	107.35	371.724	427.2652	0.002690168
1849	107.4	400.362	473.70096	0.00249774
1850	107.45	401.318	499.44356	0.00249179
1851	107.5	394.746	496.49073	0.002533275
1852	107.55	374.644	465.89682	0.002669201
1853	107.6	356.382	416.88888	0.002805978
1854	107.65	321.337	360.62251	0.003111998
1855	107.7	283.762	305.4923	0.00352408
1856	107.75	258.79	256.26095	0.003864137
1857	107.8	228.626	214.97486	0.004373956
1858	107.85	202.088	181.97136	0.004948339
1859	107.9	176.907	156.58189	0.005652688
1860	107.95	154.453	137.6167	0.006474461
1861	108	137.19	123.71683	0.007289161
1862	108.05	134.418	113.59568	0.00743948
1863	108.1	117.178	106.17465	0.008534025
1864	108.15	112.11	100.62858	0.008919811
1865	108.2	107.133	96.36979	0.009334192
1866	108.25	103.33	93.00147	0.009677732
1867	108.3	95.461	90.26458	0.010475482
1868	108.35	91.582	87.99181	0.010919176
1869	108.4	93.08	86.0736	0.010743446
1870	108.45	94.807	84.43566	0.010547744
1871	108.5	89.241	83.02521	0.011205612
1872	108.55	88.104	81.80296	0.011350222
1873	108.6	87.256	80.73854	0.01146053
1874	108.65	88.168	79.80783	0.011341983
1875	108.7	97.581	78.99132	0.010247897
1876	108.75	94.738	78.27305	0.010555427
1877	108.8	92.457	77.63984	0.010815839
1878	108.85	90.649	77.08076	0.011031561
1879	108.9	87.76	76.58667	0.011394713
1880	108.95	94.213	76.14989	0.010614246
1881	109	84.367	75.76397	0.011852976
1882	109.05	84.553	75.42345	0.011826901
1883	109.1	81.655	75.12374	0.012246647
1884	109.15	78.316	74.86091	0.012768783
1885	109.2	79.497	74.63165	0.012579091
1886	109.25	82.94	74.43317	0.012056909
1887	109.3	77.55	74.26309	0.012894907
1888	109.35	79.125	74.11945	0.012638231
1889	109.4	79.913	74.00059	0.012513609
1890	109.45	78.944	73.90517	0.012667207
1891	109.5	75.227	73.83213	0.0132931
1892	109.55	73.156	73.78064	0.013669419
1893	109.6	75.857	73.75013	0.013182699
1894	109.65	80.773	73.74022	0.012380375
1895	109.7	78.413	73.75079	0.012752987
1896	109.75	76.321	73.78192	0.013102554
1897	109.8	76.161	73.83391	0.01313008
1898	109.85	76.226	73.9073	0.013118883
1899	109.9	79.001	74.00291	0.012658068
1900	109.95	73.266	74.12183	0.013648896
1901	110	74.82	74.26546	0.01336541
1902	110.05	77.768	74.43555	0.012858759
1903	110.1	76.723	74.63431	0.013033901
1904	110.15	74.327	74.86443	0.013454061
1905	110.2	74.804	75.1292	0.013368269
1906	110.25	76.117	75.43271	0.01313767
1907	110.3	71.199	75.78003	0.014045141
1908	110.35	73.844	76.17763	0.013542062
1909	110.4	72.607	76.63397	0.013772777
1910	110.45	70.661	77.16056	0.014152078
1911	110.5	72.542	77.77366	0.013785118
1912	110.55	75.955	78.49693	0.01316569
1913	110.6	78.191	79.36537	0.012789196
1914	110.65	75.259	80.43048	0.013287447
1915	110.7	78.44	81.76631	0.012748598
1916	110.75	81.989	83.47521	0.012196758
1917	110.8	83.191	85.69094	0.012020531
1918	110.85	82.752	88.57651	0.0120843
1919	110.9	89.704	92.31337	0.011147775
1920	110.95	95.068	97.0802	0.010518787
1921	111	99.693	103.02021	0.010030795
1922	111.05	109.12	110.1852	0.009164223
1923	111.1	114.09	118.52133	0.00876501
1924	111.15	130.755	127.71248	0.007647891
1925	111.2	141.576	137.10694	0.007063344
1926	111.25	149.115	145.60961	0.006706233
1927	111.3	172.243	151.79817	0.005805751
1928	111.35	170.951	154.45809	0.005849629
1929	111.4	172.331	153.31498	0.005802786
1930	111.45	164.935	149.26961	0.006062995
1931	111.5	157.421	143.88355	0.006352393
1932	111.55	152.291	138.70362	0.006566376
1933	111.6	148.234	134.91956	0.006746091
1934	111.65	154.148	133.36892	0.006487272
1935	111.7	155.481	134.63513	0.006431654
1936	111.75	163.854	139.11862	0.006102994
1937	111.8	165.284	147.05681	0.006050192
1938	111.85	174.416	158.5025	0.005733419
1939	111.9	191.739	173.26437	0.005215423
1940	111.95	202.862	190.79411	0.004929459
1941	112	220.028	209.9905	0.004544876
1942	112.05	230.407	229.02976	0.004340146
1943	112.1	241.242	245.35708	0.004145215
1944	112.15	253.498	256.49148	0.003944804
1945	112.2	250.484	261.43949	0.003992271
1946	112.25	258.136	261.58261	0.003873927
1947	112.3	265.2	260.03626	0.003770739
1948	112.35	274.7	260.11308	0.003640335
1949	112.4	277.019	264.20203	0.003609861
1950	112.45	276.48	273.40743	0.003616898
1951	112.5	297.572	287.47587	0.003360531
1952	112.55	309.249	304.66806	0.00323364
1953	112.6	333.229	321.6057	0.003000939
1954	112.65	336.034	333.60368	0.002975889
1955	112.7	344.214	336.15828	0.002905169
1956	112.75	330.892	327.20084	0.003022134
1957	112.8	319.67	308.17465	0.003128226
1958	112.85	283.786	282.80162	0.003523782
1959	112.9	265.119	254.93629	0.003771891
1960	112.95	237.096	227.33844	0.004217701
1961	113	204.563	201.62008	0.00488847
1962	113.05	180.323	178.64971	0.005545604
1963	113.1	161.065	158.87225	0.006208674
1964	113.15	142.106	142.40432	0.007037001
1965	113.2	126.629	129.07866	0.007897085
1966	113.25	121.745	118.52807	0.00821389
1967	113.3	112.934	110.29172	0.008854729
1968	113.35	105.002	103.90319	0.009523628
1969	113.4	95.412	98.94437	0.010480862
1970	113.45	95.734	95.06855	0.01044561
1971	113.5	93.519	92.00324	0.010693014
1972	113.55	93.563	89.54234	0.010687986
1973	113.6	85.389	87.53397	0.01171111
1974	113.65	90.876	85.86801	0.011004005
1975	113.7	84.698	84.46534	0.011806654
1976	113.75	83.918	83.26913	0.011916395
1977	113.8	80.032	82.2383	0.012495002
1978	113.85	85.508	81.34271	0.011694812
1979	113.9	80.976	80.55982	0.012349338
1980	113.95	86.225	79.87239	0.011597565
1981	114	81.651	79.2669	0.012247247
1982	114.05	82.768	78.73252	0.012081964
1983	114.1	79.017	78.26043	0.012655505
1984	114.15	78.724	77.84333	0.012702607
1985	114.2	75.851	77.47514	0.013183742
1986	114.25	75.911	77.15074	0.013173321
1987	114.3	75.374	76.8658	0.013267174
1988	114.35	78.44	76.61668	0.012748598
1989	114.4	72.37	76.40028	0.01381788
1990	114.45	70.823	76.21399	0.014119707
1991	114.5	75.261	76.05559	0.013287094
1992	114.55	72.273	75.92324	0.013836426
1993	114.6	75.067	75.81541	0.013321433
1994	114.65	76.575	75.73083	0.013059092
1995	114.7	70.384	75.66849	0.014207774
1996	114.75	72.019	75.6276	0.013885225
1997	114.8	73.731	75.60761	0.013562816
1998	114.85	77.152	75.60814	0.012961427
1999	114.9	73.405	75.629	0.01362305
2000	114.95	82.07	75.67021	0.01218472
2001	115	82.092	75.73198	0.012181455
2002	115.05	78.705	75.81468	0.012705673
2003	115.1	78.125	75.91892	0.0128
2004	115.15	80.896	76.04549	0.012361551
2005	115.2	78.528	76.19543	0.012734311
2006	115.25	81.237	76.37002	0.012309662
2007	115.3	81.134	76.57083	0.012325289
2008	115.35	79.739	76.79974	0.012540915
2009	115.4	81.04	77.05898	0.012339585
2010	115.45	76.449	77.35123	0.013080616
2011	115.5	77.499	77.6796	0.012903392
2012	115.55	81.004	78.04782	0.012345069
2013	115.6	86.173	78.46027	0.011604563
2014	115.65	78.28	78.92218	0.012774655
2015	115.7	77.436	79.43979	0.01291389
2016	115.75	76.281	80.02071	0.013109424
2017	115.8	74.385	80.67428	0.013443571
2018	115.85	77.62	81.41236	0.012883278
2019	115.9	78.694	82.25037	0.012707449
2020	115.95	83.952	83.20909	0.011911569
2021	116	82.318	84.3173	0.012148011
2022	116.05	85.055	85.61573	0.011757098
2023	116.1	90.958	87.16244	0.010994085
2024	116.15	88.288	89.03966	0.011326568
2025	116.2	88.143	91.36171	0.0113452
2026	116.25	98.131	94.28248	0.01019046
2027	116.3	100.108	98.00069	0.009989212
2028	116.35	100.531	102.75975	0.00994718
2029	116.4	111.372	108.83928	0.008978918
2030	116.45	122.08	116.53541	0.00819135
2031	116.5	129.464	126.12851	0.007724155
2032	116.55	145.537	137.83839	0.006871105
2033	116.6	149.412	151.76663	0.006692903
2034	116.65	170.65	167.82216	0.005859947
2035	116.7	184.073	185.61908	0.005432627
2036	116.75	200.759	204.33612	0.004981097
2037	116.8	217.136	222.56488	0.004605409
2038	116.85	228.799	238.28325	0.004370648
2039	116.9	233.621	249.2185	0.004280437
2040	116.95	231.385	253.70886	0.004321801
2041	117	243.802	251.60955	0.004101689
2042	117.05	235.301	244.4627	0.004249876
2043	117.1	231.006	234.78247	0.004328892
2044	117.15	228.033	225.11439	0.00438533
2045	117.2	219.59	217.4633	0.004553941
2046	117.25	211.596	213.16516	0.004725987
2047	117.3	215.441	212.96523	0.004641642
2048	117.35	221.435	217.05889	0.004515998
2049	117.4	225.448	225.15849	0.004435613
2050	117.45	233.263	236.44239	0.004287007
2051	117.5	246.788	249.47866	0.004052061
2052	117.55	252.797	262.23546	0.003955743
2053	117.6	263.869	272.40206	0.003789759
2054	117.65	262.392	278.13193	0.003811092
2055	117.7	268.545	278.84926	0.003723771
2056	117.75	264.897	275.44419	0.003775052
2057	117.8	270.088	269.65488	0.003702497
2058	117.85	274.143	263.15645	0.003647731
2059	117.9	251.925	256.92215	0.003969435
2060	117.95	254.507	251.00656	0.003929165
2061	118	258.113	244.68088	0.003874272
2062	118.05	241.976	236.86194	0.004132641
2063	118.1	244.451	226.76784	0.004090799
2064	118.15	227.213	214.29882	0.004401157
2065	118.2	213.161	200.06508	0.00469129
2066	118.25	201.975	185.02694	0.004951108
2067	118.3	186.81	170.12904	0.005353032
2068	118.35	169.939	156.10339	0.005884464
2069	118.4	148.175	143.42068	0.006748777
2070	118.45	140.516	132.31877	0.007116627
2071	118.5	135.698	122.85064	0.007369305
2072	118.55	126.868	114.96277	0.007882208
2073	118.6	113.799	108.51578	0.008787423
2074	118.65	110.621	103.322	0.009039875
2075	118.7	99.307	99.1778	0.010069784
2076	118.75	102.513	95.90117	0.00975486
2077	118.8	100.4	93.31058	0.009960159
2078	118.85	96.289	91.25597	0.010385402
2079	118.9	94.166	89.61522	0.010619544
2080	118.95	96.475	88.29301	0.01036538
2081	119	93.77	87.21736	0.010664392
2082	119.05	94.722	86.33535	0.01055721
2083	119.1	82.134	85.60873	0.012175226
2084	119.15	88.292	85.01012	0.011326054
2085	119.2	89.95	84.5199	0.011117287
2086	119.25	86.87	84.12395	0.011511454
2087	119.3	81.711	83.81203	0.012238254
2088	119.35	83.733	83.57668	0.011942723
2089	119.4	84.839	83.41252	0.011787032
2090	119.45	80.604	83.31583	0.012406332
2091	119.5	83.301	83.28424	0.012004658
2092	119.55	86.837	83.31669	0.011515829
2093	119.6	82.932	83.41342	0.012058072
2094	119.65	85.147	83.57609	0.011744395
2095	119.7	92.785	83.80803	0.010777604
2096	119.75	86.009	84.11467	0.01162669
2097	119.8	87.348	84.50411	0.011448459
2098	119.85	88.723	84.98797	0.011271035
2099	119.9	88.05	85.58217	0.011357183
2100	119.95	87.797	86.30811	0.011389911
2101	120	86.491	87.19369	0.011561897
2102	120.05	88.182	88.27417	0.011340183
2103	120.1	87.526	89.59261	0.011425177
2104	120.15	88.299	91.19987	0.011325157
2105	120.2	89.42	93.1538	0.01118318
2106	120.25	90.329	95.51788	0.011070642
2107	120.3	94.381	98.35899	0.010595353
2108	120.35	104.2	101.74428	0.009596929
2109	120.4	105.715	105.73636	0.009459396
2110	120.45	107.778	110.38523	0.009278331
2111	120.5	116.165	115.71488	0.008608445
2112	120.55	119.104	121.70453	0.008396024
2113	120.6	126.135	128.27124	0.007928014
2114	120.65	136.542	135.27273	0.007323754
2115	120.7	139.707	142.55231	0.007157837
2116	120.75	155.069	150.01968	0.006448742
2117	120.8	155.205	157.71049	0.006443091
2118	120.85	166.676	165.75964	0.005999664
2119	120.9	174.642	174.28662	0.005725999
2120	120.95	186.564	183.25145	0.005360091
2121	121	198.527	192.33995	0.005037098
2122	121.05	207.703	200.92429	0.004814567
2123	121.1	212.332	208.16855	0.004709606
2124	121.15	225.037	213.30546	0.004443714
2125	121.2	230.207	216.0162	0.004343917
2126	121.25	230.223	216.67375	0.004343615
2127	121.3	213.359	216.26546	0.004686936
2128	121.35	217.304	216.069	0.004601848
2129	121.4	212.991	217.31419	0.004695034
2130	121.45	218.893	220.98022	0.004568442
2131	121.5	225.352	227.72677	0.004437502
2132	121.55	226.167	237.87713	0.004421512
2133	121.6	252.161	251.40305	0.00396572
2134	121.65	272.848	267.87463	0.003665044
2135	121.7	299.473	286.39793	0.003339199
2136	121.75	316.069	305.61789	0.003163866
2137	121.8	333.6	323.90519	0.002997602
2138	121.85	344.179	339.77429	0.002905465
2139	121.9	351.097	352.35046	0.002848216
2140	121.95	368.402	361.52939	0.002714426
2141	122	361.281	367.66972	0.002767929
2142	122.05	365.835	371.01449	0.002733473
2143	122.1	379.788	371.29751	0.002633048
2144	122.15	381.591	367.7995	0.002620607
2145	122.2	372.789	359.85112	0.002682483
2146	122.25	368.499	347.4446	0.002713712
2147	122.3	355.35	331.49722	0.002814127
2148	122.35	335.528	313.59108	0.002980377
2149	122.4	320.325	295.43699	0.003121829
2150	122.45	293.577	278.41802	0.003406261
2151	122.5	272.552	263.36845	0.003669025
2152	122.55	259.625	250.54243	0.003851709
2153	122.6	246.053	239.67886	0.004064165
2154	122.65	232.851	230.12641	0.004294592
2155	122.7	217.697	221.04848	0.004593541
2156	122.75	210.306	211.70446	0.004754976
2157	122.8	201.101	201.70741	0.004972626
2158	122.85	195.836	191.11556	0.005106313
2159	122.9	181.522	180.32006	0.005508974
2160	122.95	168.297	169.83775	0.005941877
2161	123	156.542	160.1401	0.006388062
2162	123.05	153.549	151.57947	0.006512579
2163	123.1	140.442	144.37492	0.007120377
2164	123.15	138.548	138.63192	0.007217715
2165	123.2	134.477	134.37283	0.007436216
2166	123.25	134.126	131.56793	0.007455676
2167	123.3	134.69	130.0934	0.007424456
2168	123.35	130.049	129.77222	0.007689409
2169	123.4	139.482	130.35644	0.007169384
2170	123.45	135.94	131.51693	0.007356187
2171	123.5	139.345	132.83894	0.007176433
2172	123.55	143.6	133.84439	0.006963788
2173	123.6	153.09	134.06319	0.006532105
2174	123.65	152.595	133.14818	0.006553295
2175	123.7	146.686	130.97889	0.006817283
2176	123.75	146.223	127.68416	0.006838869
2177	123.8	133.489	123.56869	0.007491254
2178	123.85	129.709	118.99747	0.007709565
2179	123.9	120.76	114.30268	0.008280888
2180	123.95	113.809	109.7393	0.008786651
2181	124	106.274	105.47953	0.009409639
2182	124.05	97.506	101.62566	0.010255779
2183	124.1	99.578	98.22668	0.010042379
2184	124.15	91.453	95.29277	0.010934578
2185	124.2	90.482	92.80681	0.011051922
2186	124.25	91.177	90.73336	0.010967678
2187	124.3	92.895	89.02622	0.010764842
2188	124.35	89.508	87.63447	0.011172186
2189	124.4	83.288	86.50732	0.012006532
2190	124.45	80.637	85.59752	0.012401255
2191	124.5	81.598	84.86345	0.012255202
2192	124.55	89.117	84.2701	0.011221204
2193	124.6	88.752	83.78911	0.011267352
2194	124.65	88.906	83.39825	0.011247835
2195	124.7	84.782	83.08053	0.011794956
2196	124.75	82.148	82.82322	0.012173151
2197	124.8	85.686	82.6169	0.011670518
2198	124.85	85.791	82.45464	0.011656234
2199	124.9	87.358	82.33136	0.011447149
2200	124.95	86.827	82.24327	0.011517155
2201	125	90.973	82.18755	0.010992272
2202	125.05	89.941	82.16208	0.0111184
2203	125.1	83.393	82.16526	0.011991414
2204	125.15	82.043	82.19589	0.01218873
2205	125.2	86.945	82.25307	0.011501524
2206	125.25	86.157	82.33621	0.011606718
2207	125.3	89.743	82.44492	0.01114293
2208	125.35	84.665	82.57904	0.011811256
2209	125.4	86.485	82.73859	0.011562699
2210	125.45	88.92	82.9238	0.011246064
2211	125.5	91.713	83.13506	0.01090358
2212	125.55	88.233	83.37296	0.011333628
2213	125.6	89.578	83.63824	0.011163455
2214	125.65	92.158	83.93187	0.01085093
2215	125.7	90.582	84.25498	0.011039721
2216	125.75	88.047	84.60892	0.01135757
2217	125.8	91.743	84.99527	0.010900014
2218	125.85	86.714	85.41582	0.011532163
2219	125.9	88.905	85.87265	0.011247961
2220	125.95	84.232	86.36811	0.011871973
2221	126	89.493	86.90485	0.011174058
2222	126.05	89.983	87.48591	0.01111321
2223	126.1	89.139	88.11468	0.011218434
2224	126.15	87.028	88.79504	0.011490555
2225	126.2	90.526	89.53134	0.01104655
2226	126.25	87.971	90.32854	0.011367382
2227	126.3	89.723	91.19226	0.011145414
2228	126.35	93.683	92.12891	0.010674295
2229	126.4	90.037	93.14586	0.011106545
2230	126.45	93.298	94.2516	0.010718343
2231	126.5	98.311	95.45607	0.010171802
2232	126.55	94.128	96.77099	0.010623831
2233	126.6	96.992	98.21048	0.010310129
2234	126.65	94.859	99.79182	0.010541962
2235	126.7	95.178	101.53661	0.01050663
2236	126.75	101.25	103.47237	0.009876543
2237	126.8	108.677	105.6348	0.009201579
2238	126.85	102.2	108.07073	0.009784736
2239	126.9	110.01	110.84207	0.009090083
2240	126.95	114.074	114.03061	0.008766239
2241	127	111.112	117.74379	0.008999928
2242	127.05	122.914	122.12109	0.00813577
2243	127.1	130.762	127.34046	0.007647482
2244	127.15	134.674	133.62404	0.007425338
2245	127.2	139.554	141.24194	0.007165685
2246	127.25	153.914	150.51258	0.006497135
2247	127.3	165.658	161.79812	0.006036533
2248	127.35	182.912	175.49344	0.00546711
2249	127.4	195.601	192.00765	0.005112448
2250	127.45	208.98	211.73748	0.004785147
2251	127.5	236.759	235.03293	0.004223704
2252	127.55	264.999	262.15543	0.003773599
2253	127.6	293.241	293.22888	0.003410164
2254	127.65	335.633	328.18208	0.002979445
2255	127.7	383.771	366.67875	0.002605721
2256	127.75	408.462	408.02925	0.002448208
2257	127.8	444.608	451.08099	0.002249172
2258	127.85	497.347	494.10126	0.002010669
2259	127.9	534.824	534.70374	0.001869774
2260	127.95	565.584	569.92316	0.001768084
2261	128	593.836	596.56227	0.001683967
2262	128.05	588.255	611.84302	0.001699943
2263	128.1	589.009	614.17326	0.001697767
2264	128.15	600.5	603.65517	0.001665279
2265	128.2	575.568	582.04677	0.001737414
2266	128.25	539.583	552.2223	0.001853283
2267	128.3	518.875	517.45182	0.001927246
2268	128.35	477.998	480.81835	0.002092059
2269	128.4	437.679	444.90574	0.002284779
2270	128.45	411.935	411.72072	0.002427567
2271	128.5	385.351	382.74723	0.002595037
2272	128.55	355.368	359.045	0.002813984
2273	128.6	335.227	341.3435	0.002983053
2274	128.65	324.128	330.11382	0.003085201
2275	128.7	322.823	325.61782	0.003097673
2276	128.75	328.846	327.93854	0.003040937
2277	128.8	334.075	336.99546	0.00299334
2278	128.85	339.114	352.5463	0.002948861
2279	128.9	370.445	374.17473	0.002699456
2280	128.95	392.723	401.26112	0.002546324
2281	129	424.49	432.93212	0.002355768
2282	129.05	453.4	467.98539	0.002205558
2283	129.1	489.969	504.79435	0.002040945
2284	129.15	522.798	541.22014	0.001912785
2285	129.2	566.852	574.59583	0.001764129
2286	129.25	593.116	601.88307	0.001686011
2287	129.3	634.103	620.08217	0.001577031
2288	129.35	627.207	626.85358	0.00159437
2289	129.4	621.176	621.12415	0.00160985
2290	129.45	595.781	603.3715	0.001678469
2291	129.5	574.172	575.43316	0.001741638
2292	129.55	546.983	539.96365	0.00182821
2293	129.6	499.579	499.81935	0.002001685
2294	129.65	459.402	457.59758	0.002176743
2295	129.7	415.503	415.40262	0.002406721
2296	129.75	371.543	374.7951	0.002691479
2297	129.8	325.443	336.84308	0.003072735
2298	129.85	287.321	302.20904	0.003480428
2299	129.9	260.806	271.23655	0.003834268
2300	129.95	246.599	244.02457	0.004055166
2301	130	232.739	220.48858	0.004296658
2302	130.05	209.436	200.41195	0.004774728
2303	130.1	192.822	183.48988	0.00518613
2304	130.15	188.957	169.36712	0.005292209
2305	130.2	173.141	157.66945	0.00577564
2306	130.25	172.167	148.02858	0.005808314
2307	130.3	156.221	140.10028	0.006401188
2308	130.35	140.848	133.57619	0.007099852
2309	130.4	132.036	128.18978	0.007573692
2310	130.45	130.411	123.71781	0.007668065
2311	130.5	124.662	119.97849	0.008021691
2312	130.55	119.603	116.82743	0.008360994
2313	130.6	122.785	114.15254	0.008144317
2314	130.65	115.45	111.86866	0.008661758
2315	130.7	109.864	109.9125	0.009102163
2316	130.75	101.995	108.21168	0.009804402
2317	130.8	104.071	106.78293	0.009608825
2318	130.85	100.772	105.58631	0.009923391
2319	130.9	101.193	104.60441	0.009882106
2320	130.95	101.679	103.83028	0.009834872
2321	131	96.209	103.26181	0.010394038
2322	131.05	95.916	102.90037	0.010425789
2323	131.1	92.466	102.74948	0.010814786
2324	131.15	88.995	102.81358	0.011236586
2325	131.2	95.175	103.09667	0.010506961
2326	131.25	95.107	103.60093	0.010514473
2327	131.3	96.684	104.32522	0.010342973
2328	131.35	94.775	105.26343	0.010551306
2329	131.4	98.64	106.40263	0.010137875
2330	131.45	98.657	107.72083	0.010136128
2331	131.5	100.939	109.18428	0.009906974
2332	131.55	111.315	110.74449	0.008983515
2333	131.6	116.146	112.3355	0.008609853
2334	131.65	116.823	113.87312	0.008559958
2335	131.7	112.436	115.25869	0.008893949
2336	131.75	117.186	116.38976	0.008533443
2337	131.8	116.187	117.17788	0.008606815
2338	131.85	118.853	117.569	0.008413755
2339	131.9	117.831	117.55834	0.008486731
2340	131.95	117.461	117.19302	0.008513464
2341	132	117.322	116.56173	0.008523551
2342	132.05	111.104	115.77708	0.009000576
2343	132.1	111.374	114.95837	0.008978756
2344	132.15	104.254	114.21976	0.009591958
2345	132.2	102.598	113.66476	0.009746779
2346	132.25	105.967	113.38584	0.0094369
2347	132.3	102.834	113.46672	0.00972441
2348	132.35	109.381	113.98543	0.009142356
2349	132.4	103.68	115.01724	0.009645062
2350	132.45	102.843	116.63674	0.009723559
2351	132.5	106.259	118.91888	0.009410968
2352	132.55	107.284	121.93906	0.009321054
2353	132.6	110.837	125.77204	0.009022258
2354	132.65	118.454	130.48997	0.008442096
2355	132.7	121.779	136.15929	0.008211596
2356	132.75	125.567	142.83675	0.007963876
2357	132.8	135.617	150.56423	0.007373707
2358	132.85	140.157	159.36256	0.007134856
2359	132.9	150.883	169.22371	0.006627652
2360	132.95	166.53	180.10102	0.006004924
2361	133	166.218	191.89697	0.006016196
2362	133.05	178.996	204.44877	0.005586717
2363	133.1	208.463	217.51358	0.004797014
2364	133.15	219.822	230.75889	0.004549135
2365	133.2	241.325	243.76704	0.004143789
2366	133.25	245.882	256.06506	0.004066991
2367	133.3	252.765	267.18525	0.003956244
2368	133.35	264.117	276.7477	0.003786201
2369	133.4	279.827	284.53536	0.003573637
2370	133.45	287.319	290.52993	0.003480452
2371	133.5	289.433	294.89136	0.003455031
2372	133.55	300.331	297.89026	0.00332966
2373	133.6	282.167	299.82825	0.003544001
2374	133.65	288.482	300.97992	0.003466421
2375	133.7	294.41	301.57241	0.003396624
2376	133.75	292.407	301.79576	0.003419891
2377	133.8	294.504	301.82182	0.00339554
2378	133.85	296.889	301.80951	0.003368262
2379	133.9	281.214	301.8864	0.003556011
2380	133.95	299.047	302.11333	0.003343956
2381	134	303.018	302.44833	0.003300134
2382	134.05	311.648	302.72789	0.003208748
2383	134.1	314.725	302.6797	0.003177377
2384	134.15	328.064	301.97285	0.003048186
2385	134.2	324.674	300.29729	0.003080013
2386	134.25	330.011	297.45115	0.003030202
2387	134.3	333.817	293.4034	0.002995653
2388	134.35	315.156	288.30729	0.003173032
2389	134.4	304.777	282.46295	0.003281087
2390	134.45	289.596	276.24867	0.003453086
2391	134.5	280.994	270.04768	0.003558795
2392	134.55	266.46	264.19188	0.003752909
2393	134.6	255.331	258.93147	0.003916485
2394	134.65	240.724	254.43073	0.004154135
2395	134.7	226.148	250.78493	0.004421883
2396	134.75	227.05	248.05063	0.004404316
2397	134.8	230.494	246.27906	0.004338508
2398	134.85	221.456	245.54092	0.00451557
2399	134.9	210.37	245.93417	0.004753529
2400	134.95	219.13	247.57322	0.004563501
2401	135	224.497	250.56569	0.004454403
2402	135.05	227.669	254.98179	0.004392342
2403	135.1	236.491	260.82871	0.004228491
2404	135.15	247.547	268.02961	0.004039637
2405	135.2	255.855	276.40747	0.003908464
2406	135.25	262.9	285.67606	0.003803728
2407	135.3	285.527	295.44115	0.003502296
2408	135.35	289.001	305.21763	0.003460196
2409	135.4	309.339	314.46705	0.003232699
2410	135.45	325.856	322.65125	0.00306884
2411	135.5	329.214	329.29908	0.003037538
2412	135.55	331.062	334.05324	0.003020582
2413	135.6	340.736	336.68548	0.002934823
2414	135.65	354.082	337.07652	0.002824205
2415	135.7	360.894	335.17716	0.002770897
2416	135.75	346.513	330.97703	0.002885895
2417	135.8	343.451	324.49991	0.002911623
2418	135.85	336.175	315.82632	0.002974641
2419	135.9	333.504	305.12606	0.002998465
2420	135.95	317.786	292.67726	0.003146772
2421	136	290.306	278.85727	0.003444641
2422	136.05	272.461	264.10718	0.00367025
2423	136.1	258.166	248.88362	0.003873477
2424	136.15	236.621	233.61391	0.004226168
2425	136.2	230.185	218.6647	0.004344332
2426	136.25	207.489	204.32673	0.004819533
2427	136.3	188.577	190.81254	0.005302874
2428	136.35	175.921	178.26172	0.00568437
2429	136.4	159.059	166.76015	0.006286975
2430	136.45	146.858	156.34067	0.006809299
2431	136.5	136.558	146.99569	0.007322896
2432	136.55	136.73	138.68961	0.007313684
2433	136.6	132.677	131.36649	0.007537101
2434	136.65	118.356	124.95604	0.008449086
2435	136.7	120.519	119.37903	0.008297447
2436	136.75	115.088	114.55186	0.008689003
2437	136.8	114.656	110.39025	0.008721742
2438	136.85	101.574	106.81216	0.009845039
2439	136.9	103.976	103.74	0.009617604
2440	136.95	95.821	101.10219	0.010436126
2441	137	100.188	98.83415	0.009981235
2442	137.05	102.593	96.87875	0.009747254
2443	137.1	92.644	95.18633	0.010794007
2444	137.15	96.079	93.71444	0.010408102
2445	137.2	93.288	92.42732	0.010719492
2446	137.25	89.847	91.29523	0.011130032
2447	137.3	90.439	90.29372	0.011057177
2448	137.35	92.68	89.40287	0.010789814
2449	137.4	86.77	88.60658	0.011524721
2450	137.45	82.974	87.89192	0.012051968
2451	137.5	79.415	87.24854	0.01259208
2452	137.55	84.291	86.66442	0.011863663
2453	137.6	83.555	86.13466	0.011968165
2454	137.65	78.078	85.66071	0.012807705
2455	137.7	80.391	85.23446	0.012439203
2456	137.75	83.948	84.85161	0.011912136
2457	137.8	90.14	84.50949	0.011093854
2458	137.85	77.819	84.20604	0.012850332
2459	137.9	85.554	83.93972	0.011688524
2460	137.95	88.273	83.70953	0.011328492
2461	138	85.38	83.51494	0.011712345
2462	138.05	84.928	83.35595	0.01177468
2463	138.1	85.65	83.23313	0.011675423
2464	138.15	87.451	83.14766	0.011434975
2465	138.2	78.389	83.10145	0.012756892
2466	138.25	78.302	83.09725	0.012771066
2467	138.3	85.03	83.13874	0.011760555
2468	138.35	82.828	83.23074	0.012073212
2469	138.4	81.816	83.36608	0.012222548
2470	138.45	77.007	83.57583	0.012985832
2471	138.5	87.016	83.86145	0.011492139
2472	138.55	88.086	84.2314	0.011352542
2473	138.6	83.697	84.69797	0.01194786
2474	138.65	81.873	85.27562	0.012214039
2475	138.7	78.086	85.98061	0.012806393
2476	138.75	81.451	86.83088	0.01227732
2477	138.8	79.426	87.84523	0.012590336
2478	138.85	84.024	89.04449	0.011901362
2479	138.9	83.764	90.45001	0.011938303
2480	138.95	85.165	92.082	0.011741913
2481	139	86.171	93.95995	0.011604832
2482	139.05	90.802	96.10139	0.011012973
2483	139.1	87.808	98.52079	0.011388484
2484	139.15	87.369	101.22829	0.011445707
2485	139.2	90.418	104.22845	0.011059745
2486	139.25	100.857	107.51881	0.009915028
2487	139.3	99.908	111.08834	0.010009208
2488	139.35	104.753	114.91571	0.009546266
2489	139.4	105.808	118.96728	0.009451081
2490	139.45	108.619	123.19478	0.009206492
2491	139.5	115.903	127.53276	0.008627904
2492	139.55	128.262	131.89612	0.007796541
2493	139.6	134.454	136.17821	0.007437488
2494	139.65	143.051	140.25074	0.006990514
2495	139.7	163.359	143.96682	0.006121487
2496	139.75	165.7	147.16879	0.006035003
2497	139.8	173.858	149.70116	0.00575182
2498	139.85	174.508	151.428	0.005730396
2499	139.9	178.629	152.25122	0.005598195
2500	139.95	182.944	152.12532	0.005466154
2501	140	174.528	151.06411	0.00572974
2502	140.05	161.965	149.13768	0.006174173
2503	140.1	154.566	146.46076	0.006469728
2504	140.15	149.373	143.17634	0.00669465
2505	140.2	139.411	139.4387	0.007173035
2506	140.25	127.057	135.39923	0.007870483
2507	140.3	117.541	131.19665	0.00850767
2508	140.35	111.722	126.95149	0.008950789
2509	140.4	110.459	122.76424	0.009053133
2510	140.45	103.217	118.71572	0.009688327
2511	140.5	98.307	114.86885	0.010172216
2512	140.55	95.56	111.27088	0.01046463
2513	140.6	96.432	107.95576	0.010370002
2514	140.65	90.631	104.94633	0.011033752
2515	140.7	92.806	102.25629	0.010775165
2516	140.75	80.602	99.89198	0.01240664
2517	140.8	89.034	97.85405	0.011231664
2518	140.85	92.563	96.13889	0.010803453
2519	140.9	91.447	94.74001	0.010935296
2520	140.95	87.897	93.6492	0.011376953
2521	141	87.057	92.85766	0.011486727
2522	141.05	87.719	92.3568	0.011400039
2523	141.1	89.049	92.13896	0.011229772
2524	141.15	92.885	92.19791	0.010766001
2525	141.2	91.071	92.52903	0.010980444
2526	141.25	89.835	93.12946	0.011131519
2527	141.3	86.843	93.99788	0.011515033
2528	141.35	93.485	95.13424	0.010696903
2529	141.4	93.734	96.53924	0.010668487
2530	141.45	92.411	98.21375	0.010821223
2531	141.5	100.326	100.15809	0.009967506
2532	141.55	94.484	102.37119	0.010583803
2533	141.6	96.555	104.84967	0.010356791
2534	141.65	101.913	107.58684	0.009812291
2535	141.7	105.694	110.57154	0.009461275
2536	141.75	104.285	113.78689	0.009589107
2537	141.8	106.256	117.20879	0.009411233
2538	141.85	107.045	120.80439	0.009341866
2539	141.9	120.022	124.53053	0.008331806
2540	141.95	121.861	128.33237	0.008206071
2541	142	129.415	132.14276	0.00772708
2542	142.05	136.181	135.88283	0.007343168
2543	142.1	142.182	139.46448	0.007033239
2544	142.15	148.41	142.79519	0.00673809
2545	142.2	152.675	145.78514	0.006549861
2546	142.25	168.012	148.35566	0.005951956
2547	142.3	166.915	150.44744	0.005991073
2548	142.35	165.369	152.02628	0.006047083
2549	142.4	170.421	153.08508	0.005867821
2550	142.45	171.569	153.64102	0.005828559
2551	142.5	166.151	153.72919	0.006018622
2552	142.55	169.611	153.39388	0.005895844
2553	142.6	172.447	152.67996	0.005798883
2554	142.65	175.046	151.62589	0.005712784
2555	142.7	167.482	150.25963	0.005970791
2556	142.75	151.136	148.59797	0.006616557
2557	142.8	157.688	146.64898	0.006341637
2558	142.85	159.416	144.4168	0.006272896
2559	142.9	156.083	141.90751	0.006406848
2560	142.95	155.27	139.13448	0.006440394
2561	143	157.943	136.12183	0.006331398
2562	143.05	145.374	132.90539	0.006878809
2563	143.1	140.248	129.53105	0.007130226
2564	143.15	135.286	126.05133	0.007391748
2565	143.2	124.781	122.52118	0.008014041
2566	143.25	118.098	118.99392	0.008467544
2567	143.3	112.319	115.51809	0.008903213
2568	143.35	108.98	112.13539	0.009175996
2569	143.4	106.16	108.87973	0.009419744
2570	143.45	105.322	105.77721	0.009494692
2571	143.5	102.457	102.84653	0.009760192
2572	143.55	92.284	100.09993	0.010836115
2573	143.6	93.759	97.54411	0.010665643
2574	143.65	95.95	95.18118	0.010422095
2575	143.7	90.976	93.00954	0.01099191
2576	143.75	90.215	91.02466	0.011084631
2577	143.8	92.417	89.21969	0.01082052
2578	143.85	87.958	87.58605	0.011369063
2579	143.9	88.587	86.11387	0.011288338
2580	143.95	89.932	84.79239	0.011119513
2581	144	87.006	83.61034	0.01149346
2582	144.05	89.852	82.5562	0.011129413
2583	144.1	90.151	81.61846	0.0110925
2584	144.15	89.758	80.78587	0.011141068
2585	144.2	85.584	80.04758	0.011684427
2586	144.25	89.489	79.39331	0.011174558
2587	144.3	83.916	78.81343	0.011916679
2588	144.35	80.028	78.29906	0.012495627
2589	144.4	84.022	77.84209	0.011901645
2590	144.45	83.368	77.43521	0.01199501
2591	144.5	83.694	77.07189	0.011948288
2592	144.55	85.631	76.74637	0.011678014
2593	144.6	87.758	76.45361	0.011394973
2594	144.65	85.335	76.1892	0.011718521
2595	144.7	86.501	75.94938	0.01156056
2596	144.75	92.017	75.73091	0.010867557
2597	144.8	85.684	75.53103	0.01167079
2598	144.85	86.287	75.3474	0.011589231
2599	144.9	87.215	75.17805	0.011465918
2600	144.95	82.224	75.0213	0.012161899
2601	145	87.739	74.87576	0.01139744



_refine_ls_goodness_of_fit_all
1.67
_journal_year
2009
_journal_page_last
299
_symmetry_space_group_name_H-M
'R 3 c'
_pd_char_colour
white
_cell_angle_beta
90
_pd_spec_mount_mode
reflection
_cell_angle_alpha
90
_diffrn_radiation_monochromator
'Ge [115]'
_chemical_formula_sum
'K0.30 Na0.70 Nb1 O3'
_chemical_formula_structural
'K Na (Nb O3)'
_journal_page_first
291
_chemical_formula_weight
168.73
_pd_proc_info_excluded_regions
'145-160\% 2\q'
_pd_meas_2theta_range_max
160
_diffrn_measurement_device_type
D2B
_symmetry_cell_setting
trigonal
_diffrn_ambient_temperature
140
_journal_coeditor_code
WF5039
_pd_meas_2theta_range_inc
0.05
_pd_spec_size_axial
20
_journal_name_full
'Acta Crystallographica, Section B'
_journal_volume
65
_cell_volume
375.212(11)
_journal_issue
3
_pd_spec_mounting
'Vanadium can packed with powder'
_pd_spec_shape
cylinder
_pd_proc_ls_prof_R_factor
0.056
_diffrn_radiation_wavelength
1.60
_pd_spec_size_equat
50
_pd_block_diffractogram_id
KNN30at140K
_pd_spec_size_thick
20
_pd_meas_scan_method
step
_diffrn_radiation_type
Neutron
_journal_paper_category
FA
_journal_date_accepted
2009-03-25
_pd_proc_ls_prof_wR_factor
0.076
_cell_angle_gamma
120
_refine_ls_number_parameters
24
_computing_structure_refinement
'TOPAS Academic'
_cell_formula_units_Z
6
_cell_length_a
5.59447(6)
_cell_length_b
5.59447(6)
_pd_meas_number_of_points
2601
_cell_length_c
13.8429(3)
_chemical_name_systematic
'Sodium Potassium Niobate'
_journal_date_recd_electronic
2008-12-13
_pd_meas_2theta_range_min
0.10
loop_
_symmetry_equiv_pos_as_xyz

;-x+y, -x, z
;

;-x+y, y, z+1/2
;

;-x+y+1/3, -x-1/3, z-1/3
;

;-x+y+1/3, y-1/3, z+1/6
;

;-x+y-1/3, -x+1/3, z+1/3
;

;-x+y-1/3, y+1/3, z-1/6
;

;-y, -x, z+1/2
;

;-y, x-y, z
;

;-y+1/3, -x-1/3, z+1/6
;

;-y+1/3, x-y-1/3, z-1/3
;

;-y-1/3, -x+1/3, z-1/6
;

;-y-1/3, x-y+1/3, z+1/3
;

;x, y, z
;

;x, x-y, z+1/2
;

;x+1/3, y-1/3, z-1/3
;

;x+1/3, x-y-1/3, z+1/6
;

;x-1/3, y+1/3, z+1/3
;

;x-1/3, x-y+1/3, z-1/6
;

loop_
_atom_type_symbol
Na1+
K1+
Nb5+
O2-

loop_
_atom_site_type_symbol
_atom_site_label
_atom_site_fract_x
_atom_site_fract_y
_atom_site_fract_z
_atom_site_occupancy
Na+1 Na1 0 0 0.2662(4) 0.7
K+1 K1 0 0 0.2662(4) 0.3
Nb+5 Nb1 0 0 0.01564(12) 1
O-2 O1 0.1345(2) 0.3361(4) 0.08333 1



# powder data simulated using PLATON:

data_KNN30at140K_simulated_1.60

_publcif_pd_cifplot 'simulated 2021-03-25'

